+ ./src/Allwmake
+ wmake libso ./thermophysicalModels/specie
wmake libso ./thermophysicalModels/specie
wmakeLnInclude: linking include files to ./lnInclude
Making dependency list for source file makeLangmuirHinshelwoodReactions.C
Making dependency list for source file makeReactions.C
Making dependency list for source file specie.C
Making dependency list for source file atomicWeights.C
g++ -std=c++11 -m64 -Dlinux64 -DWM_ARCH_OPTION=64 -DWM_DP -DWM_LABEL_SIZE=32 -Wall -Wextra -Wold-style-cast -Wnon-virtual-dtor -Wno-unused-parameter -Wno-invalid-offsetof -Wno-attributes -O0 -fdefault-inline -ggdb3 -DFULLDEBUG -DNoRepository -ftemplate-depth-100  -IlnInclude -I. -I/home/adam/openfoam/OpenFOAM-7/src/OpenFOAM/lnInclude -I/home/adam/openfoam/OpenFOAM-7/src/OSspecific/POSIX/lnInclude   -fPIC -c atomicWeights/atomicWeights.C -o Make/linux64GccDPInt32Debug/atomicWeights/atomicWeights.o
g++ -std=c++11 -m64 -Dlinux64 -DWM_ARCH_OPTION=64 -DWM_DP -DWM_LABEL_SIZE=32 -Wall -Wextra -Wold-style-cast -Wnon-virtual-dtor -Wno-unused-parameter -Wno-invalid-offsetof -Wno-attributes -O0 -fdefault-inline -ggdb3 -DFULLDEBUG -DNoRepository -ftemplate-depth-100  -IlnInclude -I. -I/home/adam/openfoam/OpenFOAM-7/src/OpenFOAM/lnInclude -I/home/adam/openfoam/OpenFOAM-7/src/OSspecific/POSIX/lnInclude   -fPIC -c specie/specie.C -o Make/linux64GccDPInt32Debug/specie/specie.o
specie/specie.C:80:16: warning: ‘Foam::Ostream& Foam::operator<<(Ostream&, const specie&)’ has not been declared within ‘Foam’
   80 | Foam::Ostream& Foam::operator<<(Ostream& os, const specie& st)
      |                ^~~~
In file included from specie/specie.C:26:
specie/specie.H:161:25: note: only here as a ‘friend’
  161 |         friend Ostream& operator<<(Ostream&, const specie&);
      |                         ^~~~~~~~
g++ -std=c++11 -m64 -Dlinux64 -DWM_ARCH_OPTION=64 -DWM_DP -DWM_LABEL_SIZE=32 -Wall -Wextra -Wold-style-cast -Wnon-virtual-dtor -Wno-unused-parameter -Wno-invalid-offsetof -Wno-attributes -O0 -fdefault-inline -ggdb3 -DFULLDEBUG -DNoRepository -ftemplate-depth-100  -IlnInclude -I. -I/home/adam/openfoam/OpenFOAM-7/src/OpenFOAM/lnInclude -I/home/adam/openfoam/OpenFOAM-7/src/OSspecific/POSIX/lnInclude   -fPIC -c reaction/reactions/makeReactions.C -o Make/linux64GccDPInt32Debug/reaction/reactions/makeReactions.o
In file included from lnInclude/Reaction.H:381,
                 from lnInclude/reactionTypes.H:36,
                 from reaction/reactions/makeReactions.C:26:
lnInclude/ReactionI.H: In member function ‘Foam::word& Foam::Reaction<ReactionThermo>::name()’:
lnInclude/ReactionI.H:38:12: error: binding reference of type ‘Foam::word&’ to ‘const Foam::word’ discards qualifiers
   38 |     return name_;
      |            ^~~~~
In file included from lnInclude/ArrheniusReactionRate.H:123,
                 from reaction/reactions/makeReactions.C:29:
lnInclude/ArrheniusReactionRateI.H: At global scope:
lnInclude/ArrheniusReactionRateI.H:100:23: warning: ‘Foam::Ostream& Foam::operator<<(Ostream&, const ArrheniusReactionRate&)’ has not been declared within ‘Foam’
  100 | inline Foam::Ostream& Foam::operator<<
      |                       ^~~~
lnInclude/ArrheniusReactionRate.H:109:32: note: only here as a ‘friend’
  109 |         inline friend Ostream& operator<<
      |                                ^~~~~~~~
In file included from lnInclude/infiniteReactionRate.H:103,
                 from reaction/reactions/makeReactions.C:30:
lnInclude/infiniteReactionRateI.H:57:23: warning: ‘Foam::Ostream& Foam::operator<<(Ostream&, const infiniteReactionRate&)’ has not been declared within ‘Foam’
   57 | inline Foam::Ostream& Foam::operator<<
      |                       ^~~~
lnInclude/infiniteReactionRate.H:89:32: note: only here as a ‘friend’
   89 |         inline friend Ostream& operator<<
      |                                ^~~~~~~~
In file included from lnInclude/LandauTellerReactionRate.H:125,
                 from reaction/reactions/makeReactions.C:31:
lnInclude/LandauTellerReactionRateI.H:127:23: warning: ‘Foam::Ostream& Foam::operator<<(Ostream&, const LandauTellerReactionRate&)’ has not been declared within ‘Foam’
  127 | inline Foam::Ostream& Foam::operator<<
      |                       ^~~~
lnInclude/LandauTellerReactionRate.H:111:32: note: only here as a ‘friend’
  111 |         inline friend Ostream& operator<<
      |                                ^~~~~~~~
In file included from lnInclude/thirdBodyArrheniusReactionRate.H:122,
                 from reaction/reactions/makeReactions.C:32:
lnInclude/thirdBodyArrheniusReactionRateI.H:95:23: warning: ‘Foam::Ostream& Foam::operator<<(Ostream&, const thirdBodyArrheniusReactionRate&)’ has not been declared within ‘Foam’
   95 | inline Foam::Ostream& Foam::operator<<
      |                       ^~~~
lnInclude/thirdBodyArrheniusReactionRate.H:108:32: note: only here as a ‘friend’
  108 |         inline friend Ostream& operator<<
      |                                ^~~~~~~~
In file included from lnInclude/JanevReactionRate.H:126,
                 from reaction/reactions/makeReactions.C:35:
lnInclude/JanevReactionRateI.H:116:23: warning: ‘Foam::Ostream& Foam::operator<<(Ostream&, const JanevReactionRate&)’ has not been declared within ‘Foam’
  116 | inline Foam::Ostream& Foam::operator<<
      |                       ^~~~
lnInclude/JanevReactionRate.H:112:32: note: only here as a ‘friend’
  112 |         inline friend Ostream& operator<<
      |                                ^~~~~~~~
In file included from lnInclude/powerSeriesReactionRate.H:126,
                 from reaction/reactions/makeReactions.C:36:
lnInclude/powerSeriesReactionRateI.H:109:23: warning: ‘Foam::Ostream& Foam::operator<<(Ostream&, const powerSeriesReactionRate&)’ has not been declared within ‘Foam’
  109 | inline Foam::Ostream& Foam::operator<<
      |                       ^~~~
lnInclude/powerSeriesReactionRate.H:112:32: note: only here as a ‘friend’
  112 |         inline friend Ostream& operator<<
      |                                ^~~~~~~~
In file included from lnInclude/Reaction.H:386:
lnInclude/Reaction.C: In instantiation of ‘Foam::Reaction<ReactionThermo>::Reaction(const Foam::speciesTable&, const Foam::HashPtrTable<ReactionThermo>&, Foam::Istream&) [with ReactionThermo = Foam::constTransport<Foam::species::thermo<Foam::hConstThermo<Foam::perfectGas<Foam::specie> >, Foam::sensibleEnthalpy> >; Foam::speciesTable = Foam::hashedWordList]’:
lnInclude/IrreversibleReaction.C:63:19:   required from ‘Foam::IrreversibleReaction<ReactionType, ReactionThermo, ReactionRate>::IrreversibleReaction(const Foam::speciesTable&, const Foam::HashPtrTable<ReactionThermo>&, Foam::Istream&) [with ReactionType = Foam::Reaction; ReactionThermo = Foam::constTransport<Foam::species::thermo<Foam::hConstThermo<Foam::perfectGas<Foam::specie> >, Foam::sensibleEnthalpy> >; ReactionRate = Foam::ArrheniusReactionRate; Foam::speciesTable = Foam::hashedWordList]’
lnInclude/Reaction.H:167:9:   required from ‘static Foam::autoPtr<Foam::Reaction<ReactionThermo> > Foam::Reaction<ReactionThermo>::addIstreamConstructorToTable<ReactionType>::New(const Foam::speciesTable&, const Foam::HashPtrTable<ReactionThermo>&, Foam::Istream&) [with ReactionType = Foam::IrreversibleReaction<Foam::Reaction, Foam::constTransport<Foam::species::thermo<Foam::hConstThermo<Foam::perfectGas<Foam::specie> >, Foam::sensibleEnthalpy> >, Foam::ArrheniusReactionRate>; ReactionThermo = Foam::constTransport<Foam::species::thermo<Foam::hConstThermo<Foam::perfectGas<Foam::specie> >, Foam::sensibleEnthalpy> >; Foam::speciesTable = Foam::hashedWordList]’
lnInclude/Reaction.H:167:9:   required from ‘Foam::Reaction<ReactionThermo>::addIstreamConstructorToTable<ReactionType>::addIstreamConstructorToTable(const Foam::word&) [with ReactionType = Foam::IrreversibleReaction<Foam::Reaction, Foam::constTransport<Foam::species::thermo<Foam::hConstThermo<Foam::perfectGas<Foam::specie> >, Foam::sensibleEnthalpy> >, Foam::ArrheniusReactionRate>; ReactionThermo = Foam::constTransport<Foam::species::thermo<Foam::hConstThermo<Foam::perfectGas<Foam::specie> >, Foam::sensibleEnthalpy> >]’
reaction/reactions/makeReactions.C:87:5:   required from here
lnInclude/Reaction.C:325:21: warning: implicitly-declared ‘Foam::constTransport<Foam::species::thermo<Foam::hConstThermo<Foam::perfectGas<Foam::specie> >, Foam::sensibleEnthalpy> >::constTransport(const Foam::constTransport<Foam::species::thermo<Foam::hConstThermo<Foam::perfectGas<Foam::specie> >, Foam::sensibleEnthalpy> >&)’ is deprecated [-Wdeprecated-copy]
  325 |     species_(species)
      |                     ^
In file included from lnInclude/constTransport.H:216,
                 from lnInclude/thermoPhysicsTypes.H:45,
                 from lnInclude/reactionTypes.H:35:
lnInclude/constTransportI.H:132:38: note: because ‘Foam::constTransport<Foam::species::thermo<Foam::hConstThermo<Foam::perfectGas<Foam::specie> >, Foam::sensibleEnthalpy> >’ has user-provided ‘Foam::constTransport<Thermo>& Foam::constTransport<Thermo>::operator=(const Foam::constTransport<Thermo>&) [with Thermo = Foam::species::thermo<Foam::hConstThermo<Foam::perfectGas<Foam::specie> >, Foam::sensibleEnthalpy>]’
  132 | inline Foam::constTransport<Thermo>& Foam::constTransport<Thermo>::operator=
      |                                      ^~~~
lnInclude/Reaction.C: In instantiation of ‘Foam::Reaction<ReactionThermo>::Reaction(const Foam::speciesTable&, const Foam::HashPtrTable<ReactionThermo>&, const Foam::dictionary&) [with ReactionThermo = Foam::constTransport<Foam::species::thermo<Foam::hConstThermo<Foam::perfectGas<Foam::specie> >, Foam::sensibleEnthalpy> >; Foam::speciesTable = Foam::hashedWordList]’:
lnInclude/IrreversibleReaction.C:82:21:   required from ‘Foam::IrreversibleReaction<ReactionType, ReactionThermo, ReactionRate>::IrreversibleReaction(const Foam::speciesTable&, const Foam::HashPtrTable<ReactionThermo>&, const Foam::dictionary&) [with ReactionType = Foam::Reaction; ReactionThermo = Foam::constTransport<Foam::species::thermo<Foam::hConstThermo<Foam::perfectGas<Foam::specie> >, Foam::sensibleEnthalpy> >; ReactionRate = Foam::ArrheniusReactionRate; Foam::speciesTable = Foam::hashedWordList]’
lnInclude/Reaction.H:180:9:   required from ‘static Foam::autoPtr<Foam::Reaction<ReactionThermo> > Foam::Reaction<ReactionThermo>::adddictionaryConstructorToTable<ReactionType>::New(const Foam::speciesTable&, const Foam::HashPtrTable<ReactionThermo>&, const Foam::dictionary&) [with ReactionType = Foam::IrreversibleReaction<Foam::Reaction, Foam::constTransport<Foam::species::thermo<Foam::hConstThermo<Foam::perfectGas<Foam::specie> >, Foam::sensibleEnthalpy> >, Foam::ArrheniusReactionRate>; ReactionThermo = Foam::constTransport<Foam::species::thermo<Foam::hConstThermo<Foam::perfectGas<Foam::specie> >, Foam::sensibleEnthalpy> >; Foam::speciesTable = Foam::hashedWordList]’
lnInclude/Reaction.H:180:9:   required from ‘Foam::Reaction<ReactionThermo>::adddictionaryConstructorToTable<ReactionType>::adddictionaryConstructorToTable(const Foam::word&) [with ReactionType = Foam::IrreversibleReaction<Foam::Reaction, Foam::constTransport<Foam::species::thermo<Foam::hConstThermo<Foam::perfectGas<Foam::specie> >, Foam::sensibleEnthalpy> >, Foam::ArrheniusReactionRate>; ReactionThermo = Foam::constTransport<Foam::species::thermo<Foam::hConstThermo<Foam::perfectGas<Foam::specie> >, Foam::sensibleEnthalpy> >]’
reaction/reactions/makeReactions.C:87:5:   required from here
lnInclude/Reaction.C:342:21: warning: implicitly-declared ‘Foam::constTransport<Foam::species::thermo<Foam::hConstThermo<Foam::perfectGas<Foam::specie> >, Foam::sensibleEnthalpy> >::constTransport(const Foam::constTransport<Foam::species::thermo<Foam::hConstThermo<Foam::perfectGas<Foam::specie> >, Foam::sensibleEnthalpy> >&)’ is deprecated [-Wdeprecated-copy]
  342 |     species_(species)
      |                     ^
lnInclude/constTransportI.H:132:38: note: because ‘Foam::constTransport<Foam::species::thermo<Foam::hConstThermo<Foam::perfectGas<Foam::specie> >, Foam::sensibleEnthalpy> >’ has user-provided ‘Foam::constTransport<Thermo>& Foam::constTransport<Thermo>::operator=(const Foam::constTransport<Thermo>&) [with Thermo = Foam::species::thermo<Foam::hConstThermo<Foam::perfectGas<Foam::specie> >, Foam::sensibleEnthalpy>]’
  132 | inline Foam::constTransport<Thermo>& Foam::constTransport<Thermo>::operator=
      |                                      ^~~~
lnInclude/Reaction.C: In instantiation of ‘Foam::Reaction<ReactionThermo>::Reaction(const Foam::speciesTable&, const Foam::HashPtrTable<ReactionThermo>&, Foam::Istream&) [with ReactionThermo = Foam::sutherlandTransport<Foam::species::thermo<Foam::janafThermo<Foam::perfectGas<Foam::specie> >, Foam::sensibleEnthalpy> >; Foam::speciesTable = Foam::hashedWordList]’:
lnInclude/IrreversibleReaction.C:63:19:   required from ‘Foam::IrreversibleReaction<ReactionType, ReactionThermo, ReactionRate>::IrreversibleReaction(const Foam::speciesTable&, const Foam::HashPtrTable<ReactionThermo>&, Foam::Istream&) [with ReactionType = Foam::Reaction; ReactionThermo = Foam::sutherlandTransport<Foam::species::thermo<Foam::janafThermo<Foam::perfectGas<Foam::specie> >, Foam::sensibleEnthalpy> >; ReactionRate = Foam::ArrheniusReactionRate; Foam::speciesTable = Foam::hashedWordList]’
lnInclude/Reaction.H:167:9:   required from ‘static Foam::autoPtr<Foam::Reaction<ReactionThermo> > Foam::Reaction<ReactionThermo>::addIstreamConstructorToTable<ReactionType>::New(const Foam::speciesTable&, const Foam::HashPtrTable<ReactionThermo>&, Foam::Istream&) [with ReactionType = Foam::IrreversibleReaction<Foam::Reaction, Foam::sutherlandTransport<Foam::species::thermo<Foam::janafThermo<Foam::perfectGas<Foam::specie> >, Foam::sensibleEnthalpy> >, Foam::ArrheniusReactionRate>; ReactionThermo = Foam::sutherlandTransport<Foam::species::thermo<Foam::janafThermo<Foam::perfectGas<Foam::specie> >, Foam::sensibleEnthalpy> >; Foam::speciesTable = Foam::hashedWordList]’
lnInclude/Reaction.H:167:9:   required from ‘Foam::Reaction<ReactionThermo>::addIstreamConstructorToTable<ReactionType>::addIstreamConstructorToTable(const Foam::word&) [with ReactionType = Foam::IrreversibleReaction<Foam::Reaction, Foam::sutherlandTransport<Foam::species::thermo<Foam::janafThermo<Foam::perfectGas<Foam::specie> >, Foam::sensibleEnthalpy> >, Foam::ArrheniusReactionRate>; ReactionThermo = Foam::sutherlandTransport<Foam::species::thermo<Foam::janafThermo<Foam::perfectGas<Foam::specie> >, Foam::sensibleEnthalpy> >]’
reaction/reactions/makeReactions.C:88:5:   required from here
lnInclude/Reaction.C:325:21: warning: implicitly-declared ‘Foam::sutherlandTransport<Foam::species::thermo<Foam::janafThermo<Foam::perfectGas<Foam::specie> >, Foam::sensibleEnthalpy> >::sutherlandTransport(const Foam::sutherlandTransport<Foam::species::thermo<Foam::janafThermo<Foam::perfectGas<Foam::specie> >, Foam::sensibleEnthalpy> >&)’ is deprecated [-Wdeprecated-copy]
  325 |     species_(species)
      |                     ^
In file included from lnInclude/sutherlandTransport.H:235,
                 from lnInclude/thermoPhysicsTypes.H:44:
lnInclude/sutherlandTransportI.H:169:1: note: because ‘Foam::sutherlandTransport<Foam::species::thermo<Foam::janafThermo<Foam::perfectGas<Foam::specie> >, Foam::sensibleEnthalpy> >’ has user-provided ‘Foam::sutherlandTransport<Thermo>& Foam::sutherlandTransport<Thermo>::operator=(const Foam::sutherlandTransport<Thermo>&) [with Thermo = Foam::species::thermo<Foam::janafThermo<Foam::perfectGas<Foam::specie> >, Foam::sensibleEnthalpy>]’
  169 | Foam::sutherlandTransport<Thermo>::operator=
      | ^~~~
lnInclude/Reaction.C: In instantiation of ‘Foam::Reaction<ReactionThermo>::Reaction(const Foam::speciesTable&, const Foam::HashPtrTable<ReactionThermo>&, const Foam::dictionary&) [with ReactionThermo = Foam::sutherlandTransport<Foam::species::thermo<Foam::janafThermo<Foam::perfectGas<Foam::specie> >, Foam::sensibleEnthalpy> >; Foam::speciesTable = Foam::hashedWordList]’:
lnInclude/IrreversibleReaction.C:82:21:   required from ‘Foam::IrreversibleReaction<ReactionType, ReactionThermo, ReactionRate>::IrreversibleReaction(const Foam::speciesTable&, const Foam::HashPtrTable<ReactionThermo>&, const Foam::dictionary&) [with ReactionType = Foam::Reaction; ReactionThermo = Foam::sutherlandTransport<Foam::species::thermo<Foam::janafThermo<Foam::perfectGas<Foam::specie> >, Foam::sensibleEnthalpy> >; ReactionRate = Foam::ArrheniusReactionRate; Foam::speciesTable = Foam::hashedWordList]’
lnInclude/Reaction.H:180:9:   required from ‘static Foam::autoPtr<Foam::Reaction<ReactionThermo> > Foam::Reaction<ReactionThermo>::adddictionaryConstructorToTable<ReactionType>::New(const Foam::speciesTable&, const Foam::HashPtrTable<ReactionThermo>&, const Foam::dictionary&) [with ReactionType = Foam::IrreversibleReaction<Foam::Reaction, Foam::sutherlandTransport<Foam::species::thermo<Foam::janafThermo<Foam::perfectGas<Foam::specie> >, Foam::sensibleEnthalpy> >, Foam::ArrheniusReactionRate>; ReactionThermo = Foam::sutherlandTransport<Foam::species::thermo<Foam::janafThermo<Foam::perfectGas<Foam::specie> >, Foam::sensibleEnthalpy> >; Foam::speciesTable = Foam::hashedWordList]’
lnInclude/Reaction.H:180:9:   required from ‘Foam::Reaction<ReactionThermo>::adddictionaryConstructorToTable<ReactionType>::adddictionaryConstructorToTable(const Foam::word&) [with ReactionType = Foam::IrreversibleReaction<Foam::Reaction, Foam::sutherlandTransport<Foam::species::thermo<Foam::janafThermo<Foam::perfectGas<Foam::specie> >, Foam::sensibleEnthalpy> >, Foam::ArrheniusReactionRate>; ReactionThermo = Foam::sutherlandTransport<Foam::species::thermo<Foam::janafThermo<Foam::perfectGas<Foam::specie> >, Foam::sensibleEnthalpy> >]’
reaction/reactions/makeReactions.C:88:5:   required from here
lnInclude/Reaction.C:342:21: warning: implicitly-declared ‘Foam::sutherlandTransport<Foam::species::thermo<Foam::janafThermo<Foam::perfectGas<Foam::specie> >, Foam::sensibleEnthalpy> >::sutherlandTransport(const Foam::sutherlandTransport<Foam::species::thermo<Foam::janafThermo<Foam::perfectGas<Foam::specie> >, Foam::sensibleEnthalpy> >&)’ is deprecated [-Wdeprecated-copy]
  342 |     species_(species)
      |                     ^
lnInclude/sutherlandTransportI.H:169:1: note: because ‘Foam::sutherlandTransport<Foam::species::thermo<Foam::janafThermo<Foam::perfectGas<Foam::specie> >, Foam::sensibleEnthalpy> >’ has user-provided ‘Foam::sutherlandTransport<Thermo>& Foam::sutherlandTransport<Thermo>::operator=(const Foam::sutherlandTransport<Thermo>&) [with Thermo = Foam::species::thermo<Foam::janafThermo<Foam::perfectGas<Foam::specie> >, Foam::sensibleEnthalpy>]’
  169 | Foam::sutherlandTransport<Thermo>::operator=
      | ^~~~
lnInclude/Reaction.C: In instantiation of ‘Foam::Reaction<ReactionThermo>::Reaction(const Foam::speciesTable&, const Foam::HashPtrTable<ReactionThermo>&, Foam::Istream&) [with ReactionThermo = Foam::constTransport<Foam::species::thermo<Foam::hConstThermo<Foam::incompressiblePerfectGas<Foam::specie> >, Foam::sensibleEnthalpy> >; Foam::speciesTable = Foam::hashedWordList]’:
lnInclude/IrreversibleReaction.C:63:19:   required from ‘Foam::IrreversibleReaction<ReactionType, ReactionThermo, ReactionRate>::IrreversibleReaction(const Foam::speciesTable&, const Foam::HashPtrTable<ReactionThermo>&, Foam::Istream&) [with ReactionType = Foam::Reaction; ReactionThermo = Foam::constTransport<Foam::species::thermo<Foam::hConstThermo<Foam::incompressiblePerfectGas<Foam::specie> >, Foam::sensibleEnthalpy> >; ReactionRate = Foam::ArrheniusReactionRate; Foam::speciesTable = Foam::hashedWordList]’
lnInclude/Reaction.H:167:9:   required from ‘static Foam::autoPtr<Foam::Reaction<ReactionThermo> > Foam::Reaction<ReactionThermo>::addIstreamConstructorToTable<ReactionType>::New(const Foam::speciesTable&, const Foam::HashPtrTable<ReactionThermo>&, Foam::Istream&) [with ReactionType = Foam::IrreversibleReaction<Foam::Reaction, Foam::constTransport<Foam::species::thermo<Foam::hConstThermo<Foam::incompressiblePerfectGas<Foam::specie> >, Foam::sensibleEnthalpy> >, Foam::ArrheniusReactionRate>; ReactionThermo = Foam::constTransport<Foam::species::thermo<Foam::hConstThermo<Foam::incompressiblePerfectGas<Foam::specie> >, Foam::sensibleEnthalpy> >; Foam::speciesTable = Foam::hashedWordList]’
lnInclude/Reaction.H:167:9:   required from ‘Foam::Reaction<ReactionThermo>::addIstreamConstructorToTable<ReactionType>::addIstreamConstructorToTable(const Foam::word&) [with ReactionType = Foam::IrreversibleReaction<Foam::Reaction, Foam::constTransport<Foam::species::thermo<Foam::hConstThermo<Foam::incompressiblePerfectGas<Foam::specie> >, Foam::sensibleEnthalpy> >, Foam::ArrheniusReactionRate>; ReactionThermo = Foam::constTransport<Foam::species::thermo<Foam::hConstThermo<Foam::incompressiblePerfectGas<Foam::specie> >, Foam::sensibleEnthalpy> >]’
reaction/reactions/makeReactions.C:89:5:   required from here
lnInclude/Reaction.C:325:21: warning: implicitly-declared ‘Foam::constTransport<Foam::species::thermo<Foam::hConstThermo<Foam::incompressiblePerfectGas<Foam::specie> >, Foam::sensibleEnthalpy> >::constTransport(const Foam::constTransport<Foam::species::thermo<Foam::hConstThermo<Foam::incompressiblePerfectGas<Foam::specie> >, Foam::sensibleEnthalpy> >&)’ is deprecated [-Wdeprecated-copy]
  325 |     species_(species)
      |                     ^
lnInclude/constTransportI.H:132:38: note: because ‘Foam::constTransport<Foam::species::thermo<Foam::hConstThermo<Foam::incompressiblePerfectGas<Foam::specie> >, Foam::sensibleEnthalpy> >’ has user-provided ‘Foam::constTransport<Thermo>& Foam::constTransport<Thermo>::operator=(const Foam::constTransport<Thermo>&) [with Thermo = Foam::species::thermo<Foam::hConstThermo<Foam::incompressiblePerfectGas<Foam::specie> >, Foam::sensibleEnthalpy>]’
  132 | inline Foam::constTransport<Thermo>& Foam::constTransport<Thermo>::operator=
      |                                      ^~~~
lnInclude/Reaction.C: In instantiation of ‘Foam::Reaction<ReactionThermo>::Reaction(const Foam::speciesTable&, const Foam::HashPtrTable<ReactionThermo>&, const Foam::dictionary&) [with ReactionThermo = Foam::constTransport<Foam::species::thermo<Foam::hConstThermo<Foam::incompressiblePerfectGas<Foam::specie> >, Foam::sensibleEnthalpy> >; Foam::speciesTable = Foam::hashedWordList]’:
lnInclude/IrreversibleReaction.C:82:21:   required from ‘Foam::IrreversibleReaction<ReactionType, ReactionThermo, ReactionRate>::IrreversibleReaction(const Foam::speciesTable&, const Foam::HashPtrTable<ReactionThermo>&, const Foam::dictionary&) [with ReactionType = Foam::Reaction; ReactionThermo = Foam::constTransport<Foam::species::thermo<Foam::hConstThermo<Foam::incompressiblePerfectGas<Foam::specie> >, Foam::sensibleEnthalpy> >; ReactionRate = Foam::ArrheniusReactionRate; Foam::speciesTable = Foam::hashedWordList]’
lnInclude/Reaction.H:180:9:   required from ‘static Foam::autoPtr<Foam::Reaction<ReactionThermo> > Foam::Reaction<ReactionThermo>::adddictionaryConstructorToTable<ReactionType>::New(const Foam::speciesTable&, const Foam::HashPtrTable<ReactionThermo>&, const Foam::dictionary&) [with ReactionType = Foam::IrreversibleReaction<Foam::Reaction, Foam::constTransport<Foam::species::thermo<Foam::hConstThermo<Foam::incompressiblePerfectGas<Foam::specie> >, Foam::sensibleEnthalpy> >, Foam::ArrheniusReactionRate>; ReactionThermo = Foam::constTransport<Foam::species::thermo<Foam::hConstThermo<Foam::incompressiblePerfectGas<Foam::specie> >, Foam::sensibleEnthalpy> >; Foam::speciesTable = Foam::hashedWordList]’
lnInclude/Reaction.H:180:9:   required from ‘Foam::Reaction<ReactionThermo>::adddictionaryConstructorToTable<ReactionType>::adddictionaryConstructorToTable(const Foam::word&) [with ReactionType = Foam::IrreversibleReaction<Foam::Reaction, Foam::constTransport<Foam::species::thermo<Foam::hConstThermo<Foam::incompressiblePerfectGas<Foam::specie> >, Foam::sensibleEnthalpy> >, Foam::ArrheniusReactionRate>; ReactionThermo = Foam::constTransport<Foam::species::thermo<Foam::hConstThermo<Foam::incompressiblePerfectGas<Foam::specie> >, Foam::sensibleEnthalpy> >]’
reaction/reactions/makeReactions.C:89:5:   required from here
lnInclude/Reaction.C:342:21: warning: implicitly-declared ‘Foam::constTransport<Foam::species::thermo<Foam::hConstThermo<Foam::incompressiblePerfectGas<Foam::specie> >, Foam::sensibleEnthalpy> >::constTransport(const Foam::constTransport<Foam::species::thermo<Foam::hConstThermo<Foam::incompressiblePerfectGas<Foam::specie> >, Foam::sensibleEnthalpy> >&)’ is deprecated [-Wdeprecated-copy]
  342 |     species_(species)
      |                     ^
lnInclude/constTransportI.H:132:38: note: because ‘Foam::constTransport<Foam::species::thermo<Foam::hConstThermo<Foam::incompressiblePerfectGas<Foam::specie> >, Foam::sensibleEnthalpy> >’ has user-provided ‘Foam::constTransport<Thermo>& Foam::constTransport<Thermo>::operator=(const Foam::constTransport<Thermo>&) [with Thermo = Foam::species::thermo<Foam::hConstThermo<Foam::incompressiblePerfectGas<Foam::specie> >, Foam::sensibleEnthalpy>]’
  132 | inline Foam::constTransport<Thermo>& Foam::constTransport<Thermo>::operator=
      |                                      ^~~~
lnInclude/Reaction.C: In instantiation of ‘Foam::Reaction<ReactionThermo>::Reaction(const Foam::speciesTable&, const Foam::HashPtrTable<ReactionThermo>&, Foam::Istream&) [with ReactionThermo = Foam::sutherlandTransport<Foam::species::thermo<Foam::janafThermo<Foam::incompressiblePerfectGas<Foam::specie> >, Foam::sensibleEnthalpy> >; Foam::speciesTable = Foam::hashedWordList]’:
lnInclude/IrreversibleReaction.C:63:19:   required from ‘Foam::IrreversibleReaction<ReactionType, ReactionThermo, ReactionRate>::IrreversibleReaction(const Foam::speciesTable&, const Foam::HashPtrTable<ReactionThermo>&, Foam::Istream&) [with ReactionType = Foam::Reaction; ReactionThermo = Foam::sutherlandTransport<Foam::species::thermo<Foam::janafThermo<Foam::incompressiblePerfectGas<Foam::specie> >, Foam::sensibleEnthalpy> >; ReactionRate = Foam::ArrheniusReactionRate; Foam::speciesTable = Foam::hashedWordList]’
lnInclude/Reaction.H:167:9:   required from ‘static Foam::autoPtr<Foam::Reaction<ReactionThermo> > Foam::Reaction<ReactionThermo>::addIstreamConstructorToTable<ReactionType>::New(const Foam::speciesTable&, const Foam::HashPtrTable<ReactionThermo>&, Foam::Istream&) [with ReactionType = Foam::IrreversibleReaction<Foam::Reaction, Foam::sutherlandTransport<Foam::species::thermo<Foam::janafThermo<Foam::incompressiblePerfectGas<Foam::specie> >, Foam::sensibleEnthalpy> >, Foam::ArrheniusReactionRate>; ReactionThermo = Foam::sutherlandTransport<Foam::species::thermo<Foam::janafThermo<Foam::incompressiblePerfectGas<Foam::specie> >, Foam::sensibleEnthalpy> >; Foam::speciesTable = Foam::hashedWordList]’
lnInclude/Reaction.H:167:9:   required from ‘Foam::Reaction<ReactionThermo>::addIstreamConstructorToTable<ReactionType>::addIstreamConstructorToTable(const Foam::word&) [with ReactionType = Foam::IrreversibleReaction<Foam::Reaction, Foam::sutherlandTransport<Foam::species::thermo<Foam::janafThermo<Foam::incompressiblePerfectGas<Foam::specie> >, Foam::sensibleEnthalpy> >, Foam::ArrheniusReactionRate>; ReactionThermo = Foam::sutherlandTransport<Foam::species::thermo<Foam::janafThermo<Foam::incompressiblePerfectGas<Foam::specie> >, Foam::sensibleEnthalpy> >]’
reaction/reactions/makeReactions.C:94:5:   required from here
lnInclude/Reaction.C:325:21: warning: implicitly-declared ‘Foam::sutherlandTransport<Foam::species::thermo<Foam::janafThermo<Foam::incompressiblePerfectGas<Foam::specie> >, Foam::sensibleEnthalpy> >::sutherlandTransport(const Foam::sutherlandTransport<Foam::species::thermo<Foam::janafThermo<Foam::incompressiblePerfectGas<Foam::specie> >, Foam::sensibleEnthalpy> >&)’ is deprecated [-Wdeprecated-copy]
  325 |     species_(species)
      |                     ^
lnInclude/sutherlandTransportI.H:169:1: note: because ‘Foam::sutherlandTransport<Foam::species::thermo<Foam::janafThermo<Foam::incompressiblePerfectGas<Foam::specie> >, Foam::sensibleEnthalpy> >’ has user-provided ‘Foam::sutherlandTransport<Thermo>& Foam::sutherlandTransport<Thermo>::operator=(const Foam::sutherlandTransport<Thermo>&) [with Thermo = Foam::species::thermo<Foam::janafThermo<Foam::incompressiblePerfectGas<Foam::specie> >, Foam::sensibleEnthalpy>]’
  169 | Foam::sutherlandTransport<Thermo>::operator=
      | ^~~~
lnInclude/Reaction.C: In instantiation of ‘Foam::Reaction<ReactionThermo>::Reaction(const Foam::speciesTable&, const Foam::HashPtrTable<ReactionThermo>&, const Foam::dictionary&) [with ReactionThermo = Foam::sutherlandTransport<Foam::species::thermo<Foam::janafThermo<Foam::incompressiblePerfectGas<Foam::specie> >, Foam::sensibleEnthalpy> >; Foam::speciesTable = Foam::hashedWordList]’:
lnInclude/IrreversibleReaction.C:82:21:   required from ‘Foam::IrreversibleReaction<ReactionType, ReactionThermo, ReactionRate>::IrreversibleReaction(const Foam::speciesTable&, const Foam::HashPtrTable<ReactionThermo>&, const Foam::dictionary&) [with ReactionType = Foam::Reaction; ReactionThermo = Foam::sutherlandTransport<Foam::species::thermo<Foam::janafThermo<Foam::incompressiblePerfectGas<Foam::specie> >, Foam::sensibleEnthalpy> >; ReactionRate = Foam::ArrheniusReactionRate; Foam::speciesTable = Foam::hashedWordList]’
lnInclude/Reaction.H:180:9:   required from ‘static Foam::autoPtr<Foam::Reaction<ReactionThermo> > Foam::Reaction<ReactionThermo>::adddictionaryConstructorToTable<ReactionType>::New(const Foam::speciesTable&, const Foam::HashPtrTable<ReactionThermo>&, const Foam::dictionary&) [with ReactionType = Foam::IrreversibleReaction<Foam::Reaction, Foam::sutherlandTransport<Foam::species::thermo<Foam::janafThermo<Foam::incompressiblePerfectGas<Foam::specie> >, Foam::sensibleEnthalpy> >, Foam::ArrheniusReactionRate>; ReactionThermo = Foam::sutherlandTransport<Foam::species::thermo<Foam::janafThermo<Foam::incompressiblePerfectGas<Foam::specie> >, Foam::sensibleEnthalpy> >; Foam::speciesTable = Foam::hashedWordList]’
lnInclude/Reaction.H:180:9:   required from ‘Foam::Reaction<ReactionThermo>::adddictionaryConstructorToTable<ReactionType>::adddictionaryConstructorToTable(const Foam::word&) [with ReactionType = Foam::IrreversibleReaction<Foam::Reaction, Foam::sutherlandTransport<Foam::species::thermo<Foam::janafThermo<Foam::incompressiblePerfectGas<Foam::specie> >, Foam::sensibleEnthalpy> >, Foam::ArrheniusReactionRate>; ReactionThermo = Foam::sutherlandTransport<Foam::species::thermo<Foam::janafThermo<Foam::incompressiblePerfectGas<Foam::specie> >, Foam::sensibleEnthalpy> >]’
reaction/reactions/makeReactions.C:94:5:   required from here
lnInclude/Reaction.C:342:21: warning: implicitly-declared ‘Foam::sutherlandTransport<Foam::species::thermo<Foam::janafThermo<Foam::incompressiblePerfectGas<Foam::specie> >, Foam::sensibleEnthalpy> >::sutherlandTransport(const Foam::sutherlandTransport<Foam::species::thermo<Foam::janafThermo<Foam::incompressiblePerfectGas<Foam::specie> >, Foam::sensibleEnthalpy> >&)’ is deprecated [-Wdeprecated-copy]
  342 |     species_(species)
      |                     ^
lnInclude/sutherlandTransportI.H:169:1: note: because ‘Foam::sutherlandTransport<Foam::species::thermo<Foam::janafThermo<Foam::incompressiblePerfectGas<Foam::specie> >, Foam::sensibleEnthalpy> >’ has user-provided ‘Foam::sutherlandTransport<Thermo>& Foam::sutherlandTransport<Thermo>::operator=(const Foam::sutherlandTransport<Thermo>&) [with Thermo = Foam::species::thermo<Foam::janafThermo<Foam::incompressiblePerfectGas<Foam::specie> >, Foam::sensibleEnthalpy>]’
  169 | Foam::sutherlandTransport<Thermo>::operator=
      | ^~~~
lnInclude/Reaction.C: In instantiation of ‘Foam::Reaction<ReactionThermo>::Reaction(const Foam::speciesTable&, const Foam::HashPtrTable<ReactionThermo>&, Foam::Istream&) [with ReactionThermo = Foam::constTransport<Foam::species::thermo<Foam::hConstThermo<Foam::perfectGas<Foam::specie> >, Foam::sensibleInternalEnergy> >; Foam::speciesTable = Foam::hashedWordList]’:
lnInclude/IrreversibleReaction.C:63:19:   required from ‘Foam::IrreversibleReaction<ReactionType, ReactionThermo, ReactionRate>::IrreversibleReaction(const Foam::speciesTable&, const Foam::HashPtrTable<ReactionThermo>&, Foam::Istream&) [with ReactionType = Foam::Reaction; ReactionThermo = Foam::constTransport<Foam::species::thermo<Foam::hConstThermo<Foam::perfectGas<Foam::specie> >, Foam::sensibleInternalEnergy> >; ReactionRate = Foam::ArrheniusReactionRate; Foam::speciesTable = Foam::hashedWordList]’
lnInclude/Reaction.H:167:9:   required from ‘static Foam::autoPtr<Foam::Reaction<ReactionThermo> > Foam::Reaction<ReactionThermo>::addIstreamConstructorToTable<ReactionType>::New(const Foam::speciesTable&, const Foam::HashPtrTable<ReactionThermo>&, Foam::Istream&) [with ReactionType = Foam::IrreversibleReaction<Foam::Reaction, Foam::constTransport<Foam::species::thermo<Foam::hConstThermo<Foam::perfectGas<Foam::specie> >, Foam::sensibleInternalEnergy> >, Foam::ArrheniusReactionRate>; ReactionThermo = Foam::constTransport<Foam::species::thermo<Foam::hConstThermo<Foam::perfectGas<Foam::specie> >, Foam::sensibleInternalEnergy> >; Foam::speciesTable = Foam::hashedWordList]’
lnInclude/Reaction.H:167:9:   required from ‘Foam::Reaction<ReactionThermo>::addIstreamConstructorToTable<ReactionType>::addIstreamConstructorToTable(const Foam::word&) [with ReactionType = Foam::IrreversibleReaction<Foam::Reaction, Foam::constTransport<Foam::species::thermo<Foam::hConstThermo<Foam::perfectGas<Foam::specie> >, Foam::sensibleInternalEnergy> >, Foam::ArrheniusReactionRate>; ReactionThermo = Foam::constTransport<Foam::species::thermo<Foam::hConstThermo<Foam::perfectGas<Foam::specie> >, Foam::sensibleInternalEnergy> >]’
reaction/reactions/makeReactions.C:97:5:   required from here
lnInclude/Reaction.C:325:21: warning: implicitly-declared ‘Foam::constTransport<Foam::species::thermo<Foam::hConstThermo<Foam::perfectGas<Foam::specie> >, Foam::sensibleInternalEnergy> >::constTransport(const Foam::constTransport<Foam::species::thermo<Foam::hConstThermo<Foam::perfectGas<Foam::specie> >, Foam::sensibleInternalEnergy> >&)’ is deprecated [-Wdeprecated-copy]
  325 |     species_(species)
      |                     ^
lnInclude/constTransportI.H:132:38: note: because ‘Foam::constTransport<Foam::species::thermo<Foam::hConstThermo<Foam::perfectGas<Foam::specie> >, Foam::sensibleInternalEnergy> >’ has user-provided ‘Foam::constTransport<Thermo>& Foam::constTransport<Thermo>::operator=(const Foam::constTransport<Thermo>&) [with Thermo = Foam::species::thermo<Foam::hConstThermo<Foam::perfectGas<Foam::specie> >, Foam::sensibleInternalEnergy>]’
  132 | inline Foam::constTransport<Thermo>& Foam::constTransport<Thermo>::operator=
      |                                      ^~~~
lnInclude/Reaction.C: In instantiation of ‘Foam::Reaction<ReactionThermo>::Reaction(const Foam::speciesTable&, const Foam::HashPtrTable<ReactionThermo>&, const Foam::dictionary&) [with ReactionThermo = Foam::constTransport<Foam::species::thermo<Foam::hConstThermo<Foam::perfectGas<Foam::specie> >, Foam::sensibleInternalEnergy> >; Foam::speciesTable = Foam::hashedWordList]’:
lnInclude/IrreversibleReaction.C:82:21:   required from ‘Foam::IrreversibleReaction<ReactionType, ReactionThermo, ReactionRate>::IrreversibleReaction(const Foam::speciesTable&, const Foam::HashPtrTable<ReactionThermo>&, const Foam::dictionary&) [with ReactionType = Foam::Reaction; ReactionThermo = Foam::constTransport<Foam::species::thermo<Foam::hConstThermo<Foam::perfectGas<Foam::specie> >, Foam::sensibleInternalEnergy> >; ReactionRate = Foam::ArrheniusReactionRate; Foam::speciesTable = Foam::hashedWordList]’
lnInclude/Reaction.H:180:9:   required from ‘static Foam::autoPtr<Foam::Reaction<ReactionThermo> > Foam::Reaction<ReactionThermo>::adddictionaryConstructorToTable<ReactionType>::New(const Foam::speciesTable&, const Foam::HashPtrTable<ReactionThermo>&, const Foam::dictionary&) [with ReactionType = Foam::IrreversibleReaction<Foam::Reaction, Foam::constTransport<Foam::species::thermo<Foam::hConstThermo<Foam::perfectGas<Foam::specie> >, Foam::sensibleInternalEnergy> >, Foam::ArrheniusReactionRate>; ReactionThermo = Foam::constTransport<Foam::species::thermo<Foam::hConstThermo<Foam::perfectGas<Foam::specie> >, Foam::sensibleInternalEnergy> >; Foam::speciesTable = Foam::hashedWordList]’
lnInclude/Reaction.H:180:9:   required from ‘Foam::Reaction<ReactionThermo>::adddictionaryConstructorToTable<ReactionType>::adddictionaryConstructorToTable(const Foam::word&) [with ReactionType = Foam::IrreversibleReaction<Foam::Reaction, Foam::constTransport<Foam::species::thermo<Foam::hConstThermo<Foam::perfectGas<Foam::specie> >, Foam::sensibleInternalEnergy> >, Foam::ArrheniusReactionRate>; ReactionThermo = Foam::constTransport<Foam::species::thermo<Foam::hConstThermo<Foam::perfectGas<Foam::specie> >, Foam::sensibleInternalEnergy> >]’
reaction/reactions/makeReactions.C:97:5:   required from here
lnInclude/Reaction.C:342:21: warning: implicitly-declared ‘Foam::constTransport<Foam::species::thermo<Foam::hConstThermo<Foam::perfectGas<Foam::specie> >, Foam::sensibleInternalEnergy> >::constTransport(const Foam::constTransport<Foam::species::thermo<Foam::hConstThermo<Foam::perfectGas<Foam::specie> >, Foam::sensibleInternalEnergy> >&)’ is deprecated [-Wdeprecated-copy]
  342 |     species_(species)
      |                     ^
lnInclude/constTransportI.H:132:38: note: because ‘Foam::constTransport<Foam::species::thermo<Foam::hConstThermo<Foam::perfectGas<Foam::specie> >, Foam::sensibleInternalEnergy> >’ has user-provided ‘Foam::constTransport<Thermo>& Foam::constTransport<Thermo>::operator=(const Foam::constTransport<Thermo>&) [with Thermo = Foam::species::thermo<Foam::hConstThermo<Foam::perfectGas<Foam::specie> >, Foam::sensibleInternalEnergy>]’
  132 | inline Foam::constTransport<Thermo>& Foam::constTransport<Thermo>::operator=
      |                                      ^~~~
lnInclude/Reaction.C: In instantiation of ‘Foam::Reaction<ReactionThermo>::Reaction(const Foam::speciesTable&, const Foam::HashPtrTable<ReactionThermo>&, Foam::Istream&) [with ReactionThermo = Foam::sutherlandTransport<Foam::species::thermo<Foam::janafThermo<Foam::perfectGas<Foam::specie> >, Foam::sensibleInternalEnergy> >; Foam::speciesTable = Foam::hashedWordList]’:
lnInclude/IrreversibleReaction.C:63:19:   required from ‘Foam::IrreversibleReaction<ReactionType, ReactionThermo, ReactionRate>::IrreversibleReaction(const Foam::speciesTable&, const Foam::HashPtrTable<ReactionThermo>&, Foam::Istream&) [with ReactionType = Foam::Reaction; ReactionThermo = Foam::sutherlandTransport<Foam::species::thermo<Foam::janafThermo<Foam::perfectGas<Foam::specie> >, Foam::sensibleInternalEnergy> >; ReactionRate = Foam::ArrheniusReactionRate; Foam::speciesTable = Foam::hashedWordList]’
lnInclude/Reaction.H:167:9:   required from ‘static Foam::autoPtr<Foam::Reaction<ReactionThermo> > Foam::Reaction<ReactionThermo>::addIstreamConstructorToTable<ReactionType>::New(const Foam::speciesTable&, const Foam::HashPtrTable<ReactionThermo>&, Foam::Istream&) [with ReactionType = Foam::IrreversibleReaction<Foam::Reaction, Foam::sutherlandTransport<Foam::species::thermo<Foam::janafThermo<Foam::perfectGas<Foam::specie> >, Foam::sensibleInternalEnergy> >, Foam::ArrheniusReactionRate>; ReactionThermo = Foam::sutherlandTransport<Foam::species::thermo<Foam::janafThermo<Foam::perfectGas<Foam::specie> >, Foam::sensibleInternalEnergy> >; Foam::speciesTable = Foam::hashedWordList]’
lnInclude/Reaction.H:167:9:   required from ‘Foam::Reaction<ReactionThermo>::addIstreamConstructorToTable<ReactionType>::addIstreamConstructorToTable(const Foam::word&) [with ReactionType = Foam::IrreversibleReaction<Foam::Reaction, Foam::sutherlandTransport<Foam::species::thermo<Foam::janafThermo<Foam::perfectGas<Foam::specie> >, Foam::sensibleInternalEnergy> >, Foam::ArrheniusReactionRate>; ReactionThermo = Foam::sutherlandTransport<Foam::species::thermo<Foam::janafThermo<Foam::perfectGas<Foam::specie> >, Foam::sensibleInternalEnergy> >]’
reaction/reactions/makeReactions.C:98:5:   required from here
lnInclude/Reaction.C:325:21: warning: implicitly-declared ‘Foam::sutherlandTransport<Foam::species::thermo<Foam::janafThermo<Foam::perfectGas<Foam::specie> >, Foam::sensibleInternalEnergy> >::sutherlandTransport(const Foam::sutherlandTransport<Foam::species::thermo<Foam::janafThermo<Foam::perfectGas<Foam::specie> >, Foam::sensibleInternalEnergy> >&)’ is deprecated [-Wdeprecated-copy]
  325 |     species_(species)
      |                     ^
lnInclude/sutherlandTransportI.H:169:1: note: because ‘Foam::sutherlandTransport<Foam::species::thermo<Foam::janafThermo<Foam::perfectGas<Foam::specie> >, Foam::sensibleInternalEnergy> >’ has user-provided ‘Foam::sutherlandTransport<Thermo>& Foam::sutherlandTransport<Thermo>::operator=(const Foam::sutherlandTransport<Thermo>&) [with Thermo = Foam::species::thermo<Foam::janafThermo<Foam::perfectGas<Foam::specie> >, Foam::sensibleInternalEnergy>]’
  169 | Foam::sutherlandTransport<Thermo>::operator=
      | ^~~~
lnInclude/Reaction.C: In instantiation of ‘Foam::Reaction<ReactionThermo>::Reaction(const Foam::speciesTable&, const Foam::HashPtrTable<ReactionThermo>&, const Foam::dictionary&) [with ReactionThermo = Foam::sutherlandTransport<Foam::species::thermo<Foam::janafThermo<Foam::perfectGas<Foam::specie> >, Foam::sensibleInternalEnergy> >; Foam::speciesTable = Foam::hashedWordList]’:
lnInclude/IrreversibleReaction.C:82:21:   required from ‘Foam::IrreversibleReaction<ReactionType, ReactionThermo, ReactionRate>::IrreversibleReaction(const Foam::speciesTable&, const Foam::HashPtrTable<ReactionThermo>&, const Foam::dictionary&) [with ReactionType = Foam::Reaction; ReactionThermo = Foam::sutherlandTransport<Foam::species::thermo<Foam::janafThermo<Foam::perfectGas<Foam::specie> >, Foam::sensibleInternalEnergy> >; ReactionRate = Foam::ArrheniusReactionRate; Foam::speciesTable = Foam::hashedWordList]’
lnInclude/Reaction.H:180:9:   required from ‘static Foam::autoPtr<Foam::Reaction<ReactionThermo> > Foam::Reaction<ReactionThermo>::adddictionaryConstructorToTable<ReactionType>::New(const Foam::speciesTable&, const Foam::HashPtrTable<ReactionThermo>&, const Foam::dictionary&) [with ReactionType = Foam::IrreversibleReaction<Foam::Reaction, Foam::sutherlandTransport<Foam::species::thermo<Foam::janafThermo<Foam::perfectGas<Foam::specie> >, Foam::sensibleInternalEnergy> >, Foam::ArrheniusReactionRate>; ReactionThermo = Foam::sutherlandTransport<Foam::species::thermo<Foam::janafThermo<Foam::perfectGas<Foam::specie> >, Foam::sensibleInternalEnergy> >; Foam::speciesTable = Foam::hashedWordList]’
lnInclude/Reaction.H:180:9:   required from ‘Foam::Reaction<ReactionThermo>::adddictionaryConstructorToTable<ReactionType>::adddictionaryConstructorToTable(const Foam::word&) [with ReactionType = Foam::IrreversibleReaction<Foam::Reaction, Foam::sutherlandTransport<Foam::species::thermo<Foam::janafThermo<Foam::perfectGas<Foam::specie> >, Foam::sensibleInternalEnergy> >, Foam::ArrheniusReactionRate>; ReactionThermo = Foam::sutherlandTransport<Foam::species::thermo<Foam::janafThermo<Foam::perfectGas<Foam::specie> >, Foam::sensibleInternalEnergy> >]’
reaction/reactions/makeReactions.C:98:5:   required from here
lnInclude/Reaction.C:342:21: warning: implicitly-declared ‘Foam::sutherlandTransport<Foam::species::thermo<Foam::janafThermo<Foam::perfectGas<Foam::specie> >, Foam::sensibleInternalEnergy> >::sutherlandTransport(const Foam::sutherlandTransport<Foam::species::thermo<Foam::janafThermo<Foam::perfectGas<Foam::specie> >, Foam::sensibleInternalEnergy> >&)’ is deprecated [-Wdeprecated-copy]
  342 |     species_(species)
      |                     ^
lnInclude/sutherlandTransportI.H:169:1: note: because ‘Foam::sutherlandTransport<Foam::species::thermo<Foam::janafThermo<Foam::perfectGas<Foam::specie> >, Foam::sensibleInternalEnergy> >’ has user-provided ‘Foam::sutherlandTransport<Thermo>& Foam::sutherlandTransport<Thermo>::operator=(const Foam::sutherlandTransport<Thermo>&) [with Thermo = Foam::species::thermo<Foam::janafThermo<Foam::perfectGas<Foam::specie> >, Foam::sensibleInternalEnergy>]’
  169 | Foam::sutherlandTransport<Thermo>::operator=
      | ^~~~
lnInclude/Reaction.C: In instantiation of ‘Foam::Reaction<ReactionThermo>::Reaction(const Foam::speciesTable&, const Foam::HashPtrTable<ReactionThermo>&, Foam::Istream&) [with ReactionThermo = Foam::constTransport<Foam::species::thermo<Foam::hConstThermo<Foam::incompressiblePerfectGas<Foam::specie> >, Foam::sensibleInternalEnergy> >; Foam::speciesTable = Foam::hashedWordList]’:
lnInclude/IrreversibleReaction.C:63:19:   required from ‘Foam::IrreversibleReaction<ReactionType, ReactionThermo, ReactionRate>::IrreversibleReaction(const Foam::speciesTable&, const Foam::HashPtrTable<ReactionThermo>&, Foam::Istream&) [with ReactionType = Foam::Reaction; ReactionThermo = Foam::constTransport<Foam::species::thermo<Foam::hConstThermo<Foam::incompressiblePerfectGas<Foam::specie> >, Foam::sensibleInternalEnergy> >; ReactionRate = Foam::ArrheniusReactionRate; Foam::speciesTable = Foam::hashedWordList]’
lnInclude/Reaction.H:167:9:   required from ‘static Foam::autoPtr<Foam::Reaction<ReactionThermo> > Foam::Reaction<ReactionThermo>::addIstreamConstructorToTable<ReactionType>::New(const Foam::speciesTable&, const Foam::HashPtrTable<ReactionThermo>&, Foam::Istream&) [with ReactionType = Foam::IrreversibleReaction<Foam::Reaction, Foam::constTransport<Foam::species::thermo<Foam::hConstThermo<Foam::incompressiblePerfectGas<Foam::specie> >, Foam::sensibleInternalEnergy> >, Foam::ArrheniusReactionRate>; ReactionThermo = Foam::constTransport<Foam::species::thermo<Foam::hConstThermo<Foam::incompressiblePerfectGas<Foam::specie> >, Foam::sensibleInternalEnergy> >; Foam::speciesTable = Foam::hashedWordList]’
lnInclude/Reaction.H:167:9:   required from ‘Foam::Reaction<ReactionThermo>::addIstreamConstructorToTable<ReactionType>::addIstreamConstructorToTable(const Foam::word&) [with ReactionType = Foam::IrreversibleReaction<Foam::Reaction, Foam::constTransport<Foam::species::thermo<Foam::hConstThermo<Foam::incompressiblePerfectGas<Foam::specie> >, Foam::sensibleInternalEnergy> >, Foam::ArrheniusReactionRate>; ReactionThermo = Foam::constTransport<Foam::species::thermo<Foam::hConstThermo<Foam::incompressiblePerfectGas<Foam::specie> >, Foam::sensibleInternalEnergy> >]’
reaction/reactions/makeReactions.C:99:5:   required from here
lnInclude/Reaction.C:325:21: warning: implicitly-declared ‘Foam::constTransport<Foam::species::thermo<Foam::hConstThermo<Foam::incompressiblePerfectGas<Foam::specie> >, Foam::sensibleInternalEnergy> >::constTransport(const Foam::constTransport<Foam::species::thermo<Foam::hConstThermo<Foam::incompressiblePerfectGas<Foam::specie> >, Foam::sensibleInternalEnergy> >&)’ is deprecated [-Wdeprecated-copy]
  325 |     species_(species)
      |                     ^
lnInclude/constTransportI.H:132:38: note: because ‘Foam::constTransport<Foam::species::thermo<Foam::hConstThermo<Foam::incompressiblePerfectGas<Foam::specie> >, Foam::sensibleInternalEnergy> >’ has user-provided ‘Foam::constTransport<Thermo>& Foam::constTransport<Thermo>::operator=(const Foam::constTransport<Thermo>&) [with Thermo = Foam::species::thermo<Foam::hConstThermo<Foam::incompressiblePerfectGas<Foam::specie> >, Foam::sensibleInternalEnergy>]’
  132 | inline Foam::constTransport<Thermo>& Foam::constTransport<Thermo>::operator=
      |                                      ^~~~
lnInclude/Reaction.C: In instantiation of ‘Foam::Reaction<ReactionThermo>::Reaction(const Foam::speciesTable&, const Foam::HashPtrTable<ReactionThermo>&, const Foam::dictionary&) [with ReactionThermo = Foam::constTransport<Foam::species::thermo<Foam::hConstThermo<Foam::incompressiblePerfectGas<Foam::specie> >, Foam::sensibleInternalEnergy> >; Foam::speciesTable = Foam::hashedWordList]’:
lnInclude/IrreversibleReaction.C:82:21:   required from ‘Foam::IrreversibleReaction<ReactionType, ReactionThermo, ReactionRate>::IrreversibleReaction(const Foam::speciesTable&, const Foam::HashPtrTable<ReactionThermo>&, const Foam::dictionary&) [with ReactionType = Foam::Reaction; ReactionThermo = Foam::constTransport<Foam::species::thermo<Foam::hConstThermo<Foam::incompressiblePerfectGas<Foam::specie> >, Foam::sensibleInternalEnergy> >; ReactionRate = Foam::ArrheniusReactionRate; Foam::speciesTable = Foam::hashedWordList]’
lnInclude/Reaction.H:180:9:   required from ‘static Foam::autoPtr<Foam::Reaction<ReactionThermo> > Foam::Reaction<ReactionThermo>::adddictionaryConstructorToTable<ReactionType>::New(const Foam::speciesTable&, const Foam::HashPtrTable<ReactionThermo>&, const Foam::dictionary&) [with ReactionType = Foam::IrreversibleReaction<Foam::Reaction, Foam::constTransport<Foam::species::thermo<Foam::hConstThermo<Foam::incompressiblePerfectGas<Foam::specie> >, Foam::sensibleInternalEnergy> >, Foam::ArrheniusReactionRate>; ReactionThermo = Foam::constTransport<Foam::species::thermo<Foam::hConstThermo<Foam::incompressiblePerfectGas<Foam::specie> >, Foam::sensibleInternalEnergy> >; Foam::speciesTable = Foam::hashedWordList]’
lnInclude/Reaction.H:180:9:   required from ‘Foam::Reaction<ReactionThermo>::adddictionaryConstructorToTable<ReactionType>::adddictionaryConstructorToTable(const Foam::word&) [with ReactionType = Foam::IrreversibleReaction<Foam::Reaction, Foam::constTransport<Foam::species::thermo<Foam::hConstThermo<Foam::incompressiblePerfectGas<Foam::specie> >, Foam::sensibleInternalEnergy> >, Foam::ArrheniusReactionRate>; ReactionThermo = Foam::constTransport<Foam::species::thermo<Foam::hConstThermo<Foam::incompressiblePerfectGas<Foam::specie> >, Foam::sensibleInternalEnergy> >]’
reaction/reactions/makeReactions.C:99:5:   required from here
lnInclude/Reaction.C:342:21: warning: implicitly-declared ‘Foam::constTransport<Foam::species::thermo<Foam::hConstThermo<Foam::incompressiblePerfectGas<Foam::specie> >, Foam::sensibleInternalEnergy> >::constTransport(const Foam::constTransport<Foam::species::thermo<Foam::hConstThermo<Foam::incompressiblePerfectGas<Foam::specie> >, Foam::sensibleInternalEnergy> >&)’ is deprecated [-Wdeprecated-copy]
  342 |     species_(species)
      |                     ^
lnInclude/constTransportI.H:132:38: note: because ‘Foam::constTransport<Foam::species::thermo<Foam::hConstThermo<Foam::incompressiblePerfectGas<Foam::specie> >, Foam::sensibleInternalEnergy> >’ has user-provided ‘Foam::constTransport<Thermo>& Foam::constTransport<Thermo>::operator=(const Foam::constTransport<Thermo>&) [with Thermo = Foam::species::thermo<Foam::hConstThermo<Foam::incompressiblePerfectGas<Foam::specie> >, Foam::sensibleInternalEnergy>]’
  132 | inline Foam::constTransport<Thermo>& Foam::constTransport<Thermo>::operator=
      |                                      ^~~~
lnInclude/Reaction.C: In instantiation of ‘Foam::Reaction<ReactionThermo>::Reaction(const Foam::speciesTable&, const Foam::HashPtrTable<ReactionThermo>&, Foam::Istream&) [with ReactionThermo = Foam::sutherlandTransport<Foam::species::thermo<Foam::janafThermo<Foam::incompressiblePerfectGas<Foam::specie> >, Foam::sensibleInternalEnergy> >; Foam::speciesTable = Foam::hashedWordList]’:
lnInclude/IrreversibleReaction.C:63:19:   required from ‘Foam::IrreversibleReaction<ReactionType, ReactionThermo, ReactionRate>::IrreversibleReaction(const Foam::speciesTable&, const Foam::HashPtrTable<ReactionThermo>&, Foam::Istream&) [with ReactionType = Foam::Reaction; ReactionThermo = Foam::sutherlandTransport<Foam::species::thermo<Foam::janafThermo<Foam::incompressiblePerfectGas<Foam::specie> >, Foam::sensibleInternalEnergy> >; ReactionRate = Foam::ArrheniusReactionRate; Foam::speciesTable = Foam::hashedWordList]’
lnInclude/Reaction.H:167:9:   required from ‘static Foam::autoPtr<Foam::Reaction<ReactionThermo> > Foam::Reaction<ReactionThermo>::addIstreamConstructorToTable<ReactionType>::New(const Foam::speciesTable&, const Foam::HashPtrTable<ReactionThermo>&, Foam::Istream&) [with ReactionType = Foam::IrreversibleReaction<Foam::Reaction, Foam::sutherlandTransport<Foam::species::thermo<Foam::janafThermo<Foam::incompressiblePerfectGas<Foam::specie> >, Foam::sensibleInternalEnergy> >, Foam::ArrheniusReactionRate>; ReactionThermo = Foam::sutherlandTransport<Foam::species::thermo<Foam::janafThermo<Foam::incompressiblePerfectGas<Foam::specie> >, Foam::sensibleInternalEnergy> >; Foam::speciesTable = Foam::hashedWordList]’
lnInclude/Reaction.H:167:9:   required from ‘Foam::Reaction<ReactionThermo>::addIstreamConstructorToTable<ReactionType>::addIstreamConstructorToTable(const Foam::word&) [with ReactionType = Foam::IrreversibleReaction<Foam::Reaction, Foam::sutherlandTransport<Foam::species::thermo<Foam::janafThermo<Foam::incompressiblePerfectGas<Foam::specie> >, Foam::sensibleInternalEnergy> >, Foam::ArrheniusReactionRate>; ReactionThermo = Foam::sutherlandTransport<Foam::species::thermo<Foam::janafThermo<Foam::incompressiblePerfectGas<Foam::specie> >, Foam::sensibleInternalEnergy> >]’
reaction/reactions/makeReactions.C:104:5:   required from here
lnInclude/Reaction.C:325:21: warning: implicitly-declared ‘Foam::sutherlandTransport<Foam::species::thermo<Foam::janafThermo<Foam::incompressiblePerfectGas<Foam::specie> >, Foam::sensibleInternalEnergy> >::sutherlandTransport(const Foam::sutherlandTransport<Foam::species::thermo<Foam::janafThermo<Foam::incompressiblePerfectGas<Foam::specie> >, Foam::sensibleInternalEnergy> >&)’ is deprecated [-Wdeprecated-copy]
  325 |     species_(species)
      |                     ^
lnInclude/sutherlandTransportI.H:169:1: note: because ‘Foam::sutherlandTransport<Foam::species::thermo<Foam::janafThermo<Foam::incompressiblePerfectGas<Foam::specie> >, Foam::sensibleInternalEnergy> >’ has user-provided ‘Foam::sutherlandTransport<Thermo>& Foam::sutherlandTransport<Thermo>::operator=(const Foam::sutherlandTransport<Thermo>&) [with Thermo = Foam::species::thermo<Foam::janafThermo<Foam::incompressiblePerfectGas<Foam::specie> >, Foam::sensibleInternalEnergy>]’
  169 | Foam::sutherlandTransport<Thermo>::operator=
      | ^~~~
lnInclude/Reaction.C: In instantiation of ‘Foam::Reaction<ReactionThermo>::Reaction(const Foam::speciesTable&, const Foam::HashPtrTable<ReactionThermo>&, const Foam::dictionary&) [with ReactionThermo = Foam::sutherlandTransport<Foam::species::thermo<Foam::janafThermo<Foam::incompressiblePerfectGas<Foam::specie> >, Foam::sensibleInternalEnergy> >; Foam::speciesTable = Foam::hashedWordList]’:
lnInclude/IrreversibleReaction.C:82:21:   required from ‘Foam::IrreversibleReaction<ReactionType, ReactionThermo, ReactionRate>::IrreversibleReaction(const Foam::speciesTable&, const Foam::HashPtrTable<ReactionThermo>&, const Foam::dictionary&) [with ReactionType = Foam::Reaction; ReactionThermo = Foam::sutherlandTransport<Foam::species::thermo<Foam::janafThermo<Foam::incompressiblePerfectGas<Foam::specie> >, Foam::sensibleInternalEnergy> >; ReactionRate = Foam::ArrheniusReactionRate; Foam::speciesTable = Foam::hashedWordList]’
lnInclude/Reaction.H:180:9:   required from ‘static Foam::autoPtr<Foam::Reaction<ReactionThermo> > Foam::Reaction<ReactionThermo>::adddictionaryConstructorToTable<ReactionType>::New(const Foam::speciesTable&, const Foam::HashPtrTable<ReactionThermo>&, const Foam::dictionary&) [with ReactionType = Foam::IrreversibleReaction<Foam::Reaction, Foam::sutherlandTransport<Foam::species::thermo<Foam::janafThermo<Foam::incompressiblePerfectGas<Foam::specie> >, Foam::sensibleInternalEnergy> >, Foam::ArrheniusReactionRate>; ReactionThermo = Foam::sutherlandTransport<Foam::species::thermo<Foam::janafThermo<Foam::incompressiblePerfectGas<Foam::specie> >, Foam::sensibleInternalEnergy> >; Foam::speciesTable = Foam::hashedWordList]’
lnInclude/Reaction.H:180:9:   required from ‘Foam::Reaction<ReactionThermo>::adddictionaryConstructorToTable<ReactionType>::adddictionaryConstructorToTable(const Foam::word&) [with ReactionType = Foam::IrreversibleReaction<Foam::Reaction, Foam::sutherlandTransport<Foam::species::thermo<Foam::janafThermo<Foam::incompressiblePerfectGas<Foam::specie> >, Foam::sensibleInternalEnergy> >, Foam::ArrheniusReactionRate>; ReactionThermo = Foam::sutherlandTransport<Foam::species::thermo<Foam::janafThermo<Foam::incompressiblePerfectGas<Foam::specie> >, Foam::sensibleInternalEnergy> >]’
reaction/reactions/makeReactions.C:104:5:   required from here
lnInclude/Reaction.C:342:21: warning: implicitly-declared ‘Foam::sutherlandTransport<Foam::species::thermo<Foam::janafThermo<Foam::incompressiblePerfectGas<Foam::specie> >, Foam::sensibleInternalEnergy> >::sutherlandTransport(const Foam::sutherlandTransport<Foam::species::thermo<Foam::janafThermo<Foam::incompressiblePerfectGas<Foam::specie> >, Foam::sensibleInternalEnergy> >&)’ is deprecated [-Wdeprecated-copy]
  342 |     species_(species)
      |                     ^
lnInclude/sutherlandTransportI.H:169:1: note: because ‘Foam::sutherlandTransport<Foam::species::thermo<Foam::janafThermo<Foam::incompressiblePerfectGas<Foam::specie> >, Foam::sensibleInternalEnergy> >’ has user-provided ‘Foam::sutherlandTransport<Thermo>& Foam::sutherlandTransport<Thermo>::operator=(const Foam::sutherlandTransport<Thermo>&) [with Thermo = Foam::species::thermo<Foam::janafThermo<Foam::incompressiblePerfectGas<Foam::specie> >, Foam::sensibleInternalEnergy>]’
  169 | Foam::sutherlandTransport<Thermo>::operator=
      | ^~~~
In file included from reaction/reactions/makeReaction.H:38,
                 from reaction/reactions/makeReactions.C:27:
lnInclude/ReversibleReaction.H: In instantiation of ‘Foam::autoPtr<ReactionType<ReactionThermo> > Foam::ReversibleReaction<ReactionType, ReactionThermo, ReactionRate>::clone() const [with ReactionType = Foam::Reaction; ReactionThermo = Foam::polynomialTransport<Foam::species::thermo<Foam::hPolynomialThermo<Foam::icoPolynomial<Foam::specie, 8>, 8>, Foam::sensibleInternalEnergy>, 8>; ReactionRate = Foam::ChemicallyActivatedReactionRate<Foam::ArrheniusReactionRate, Foam::SRIFallOffFunction>]’:
lnInclude/ReversibleReaction.H:123:56:   required from here
lnInclude/ReversibleReaction.H:127:17: warning: implicitly-declared ‘Foam::ReversibleReaction<Foam::Reaction, Foam::polynomialTransport<Foam::species::thermo<Foam::hPolynomialThermo<Foam::icoPolynomial<Foam::specie, 8>, 8>, Foam::sensibleInternalEnergy>, 8>, Foam::ChemicallyActivatedReactionRate<Foam::ArrheniusReactionRate, Foam::SRIFallOffFunction> >::ReversibleReaction(const Foam::ReversibleReaction<Foam::Reaction, Foam::polynomialTransport<Foam::species::thermo<Foam::hPolynomialThermo<Foam::icoPolynomial<Foam::specie, 8>, 8>, Foam::sensibleInternalEnergy>, 8>, Foam::ChemicallyActivatedReactionRate<Foam::ArrheniusReactionRate, Foam::SRIFallOffFunction> >&)’ is deprecated [-Wdeprecated-copy]
  127 |                 new ReversibleReaction
      |                 ^~~~~~~~~~~~~~~~~~~~~~
  128 |                 <
      |                 ~
  129 |                     ReactionType,
      |                     ~~~~~~~~~~~~~
  130 |                     ReactionThermo,
      |                     ~~~~~~~~~~~~~~~
  131 |                     ReactionRate
      |                     ~~~~~~~~~~~~
  132 |                 >(*this)
      |                 ~~~~~~~~
lnInclude/ReversibleReaction.H:68:14: note: because ‘Foam::ReversibleReaction<Foam::Reaction, Foam::polynomialTransport<Foam::species::thermo<Foam::hPolynomialThermo<Foam::icoPolynomial<Foam::specie, 8>, 8>, Foam::sensibleInternalEnergy>, 8>, Foam::ChemicallyActivatedReactionRate<Foam::ArrheniusReactionRate, Foam::SRIFallOffFunction> >’ has user-provided ‘void Foam::ReversibleReaction<ReactionType, ReactionThermo, ReactionRate>::operator=(const Foam::ReversibleReaction<ReactionType, ReactionThermo, ReactionRate>&) [with ReactionType = Foam::Reaction; ReactionThermo = Foam::polynomialTransport<Foam::species::thermo<Foam::hPolynomialThermo<Foam::icoPolynomial<Foam::specie, 8>, 8>, Foam::sensibleInternalEnergy>, 8>; ReactionRate = Foam::ChemicallyActivatedReactionRate<Foam::ArrheniusReactionRate, Foam::SRIFallOffFunction>]’
   68 |         void operator=
      |              ^~~~~~~~
lnInclude/ReversibleReaction.H:56:7: warning: implicitly-declared ‘Foam::Reaction<Foam::polynomialTransport<Foam::species::thermo<Foam::hPolynomialThermo<Foam::icoPolynomial<Foam::specie, 8>, 8>, Foam::sensibleInternalEnergy>, 8> >::Reaction(const Foam::Reaction<Foam::polynomialTransport<Foam::species::thermo<Foam::hPolynomialThermo<Foam::icoPolynomial<Foam::specie, 8>, 8>, Foam::sensibleInternalEnergy>, 8> >&)’ is deprecated [-Wdeprecated-copy]
   56 | class ReversibleReaction
      |       ^~~~~~~~~~~~~~~~~~
lnInclude/Reaction.H:153:14: note: because ‘Foam::Reaction<Foam::polynomialTransport<Foam::species::thermo<Foam::hPolynomialThermo<Foam::icoPolynomial<Foam::specie, 8>, 8>, Foam::sensibleInternalEnergy>, 8> >’ has user-provided ‘void Foam::Reaction<ReactionThermo>::operator=(const Foam::Reaction<ReactionThermo>&) [with ReactionThermo = Foam::polynomialTransport<Foam::species::thermo<Foam::hPolynomialThermo<Foam::icoPolynomial<Foam::specie, 8>, 8>, Foam::sensibleInternalEnergy>, 8>]’
  153 |         void operator=(const Reaction<ReactionThermo>&);
      |              ^~~~~~~~
lnInclude/ReversibleReaction.H:127:17: note: synthesized method ‘Foam::ReversibleReaction<Foam::Reaction, Foam::polynomialTransport<Foam::species::thermo<Foam::hPolynomialThermo<Foam::icoPolynomial<Foam::specie, 8>, 8>, Foam::sensibleInternalEnergy>, 8>, Foam::ChemicallyActivatedReactionRate<Foam::ArrheniusReactionRate, Foam::SRIFallOffFunction> >::ReversibleReaction(const Foam::ReversibleReaction<Foam::Reaction, Foam::polynomialTransport<Foam::species::thermo<Foam::hPolynomialThermo<Foam::icoPolynomial<Foam::specie, 8>, 8>, Foam::sensibleInternalEnergy>, 8>, Foam::ChemicallyActivatedReactionRate<Foam::ArrheniusReactionRate, Foam::SRIFallOffFunction> >&)’ first required here
  127 |                 new ReversibleReaction
      |                 ^~~~~~~~~~~~~~~~~~~~~~
  128 |                 <
      |                 ~
  129 |                     ReactionType,
      |                     ~~~~~~~~~~~~~
  130 |                     ReactionThermo,
      |                     ~~~~~~~~~~~~~~~
  131 |                     ReactionRate
      |                     ~~~~~~~~~~~~
  132 |                 >(*this)
      |                 ~~~~~~~~
In file included from reaction/reactions/makeReaction.H:37:
lnInclude/IrreversibleReaction.H: In instantiation of ‘Foam::autoPtr<Foam::Reaction<ReactionThermo> > Foam::IrreversibleReaction<ReactionType, ReactionThermo, ReactionRate>::clone() const [with ReactionType = Foam::Reaction; ReactionThermo = Foam::polynomialTransport<Foam::species::thermo<Foam::hPolynomialThermo<Foam::icoPolynomial<Foam::specie, 8>, 8>, Foam::sensibleInternalEnergy>, 8>; ReactionRate = Foam::ChemicallyActivatedReactionRate<Foam::ArrheniusReactionRate, Foam::SRIFallOffFunction>]’:
lnInclude/IrreversibleReaction.H:123:52:   required from here
lnInclude/IrreversibleReaction.H:127:17: warning: implicitly-declared ‘Foam::IrreversibleReaction<Foam::Reaction, Foam::polynomialTransport<Foam::species::thermo<Foam::hPolynomialThermo<Foam::icoPolynomial<Foam::specie, 8>, 8>, Foam::sensibleInternalEnergy>, 8>, Foam::ChemicallyActivatedReactionRate<Foam::ArrheniusReactionRate, Foam::SRIFallOffFunction> >::IrreversibleReaction(const Foam::IrreversibleReaction<Foam::Reaction, Foam::polynomialTransport<Foam::species::thermo<Foam::hPolynomialThermo<Foam::icoPolynomial<Foam::specie, 8>, 8>, Foam::sensibleInternalEnergy>, 8>, Foam::ChemicallyActivatedReactionRate<Foam::ArrheniusReactionRate, Foam::SRIFallOffFunction> >&)’ is deprecated [-Wdeprecated-copy]
  127 |                 new IrreversibleReaction
      |                 ^~~~~~~~~~~~~~~~~~~~~~~~
  128 |                 <
      |                 ~
  129 |                     ReactionType,
      |                     ~~~~~~~~~~~~~
  130 |                     ReactionThermo,
      |                     ~~~~~~~~~~~~~~~
  131 |                     ReactionRate
      |                     ~~~~~~~~~~~~
  132 |                 >(*this)
      |                 ~~~~~~~~
lnInclude/IrreversibleReaction.H:68:14: note: because ‘Foam::IrreversibleReaction<Foam::Reaction, Foam::polynomialTransport<Foam::species::thermo<Foam::hPolynomialThermo<Foam::icoPolynomial<Foam::specie, 8>, 8>, Foam::sensibleInternalEnergy>, 8>, Foam::ChemicallyActivatedReactionRate<Foam::ArrheniusReactionRate, Foam::SRIFallOffFunction> >’ has user-provided ‘void Foam::IrreversibleReaction<ReactionType, ReactionThermo, ReactionRate>::operator=(const Foam::IrreversibleReaction<ReactionType, ReactionThermo, ReactionRate>&) [with ReactionType = Foam::Reaction; ReactionThermo = Foam::polynomialTransport<Foam::species::thermo<Foam::hPolynomialThermo<Foam::icoPolynomial<Foam::specie, 8>, 8>, Foam::sensibleInternalEnergy>, 8>; ReactionRate = Foam::ChemicallyActivatedReactionRate<Foam::ArrheniusReactionRate, Foam::SRIFallOffFunction>]’
   68 |         void operator=
      |              ^~~~~~~~
lnInclude/IrreversibleReaction.H:56:7: warning: implicitly-declared ‘Foam::Reaction<Foam::polynomialTransport<Foam::species::thermo<Foam::hPolynomialThermo<Foam::icoPolynomial<Foam::specie, 8>, 8>, Foam::sensibleInternalEnergy>, 8> >::Reaction(const Foam::Reaction<Foam::polynomialTransport<Foam::species::thermo<Foam::hPolynomialThermo<Foam::icoPolynomial<Foam::specie, 8>, 8>, Foam::sensibleInternalEnergy>, 8> >&)’ is deprecated [-Wdeprecated-copy]
   56 | class IrreversibleReaction
      |       ^~~~~~~~~~~~~~~~~~~~
lnInclude/Reaction.H:153:14: note: because ‘Foam::Reaction<Foam::polynomialTransport<Foam::species::thermo<Foam::hPolynomialThermo<Foam::icoPolynomial<Foam::specie, 8>, 8>, Foam::sensibleInternalEnergy>, 8> >’ has user-provided ‘void Foam::Reaction<ReactionThermo>::operator=(const Foam::Reaction<ReactionThermo>&) [with ReactionThermo = Foam::polynomialTransport<Foam::species::thermo<Foam::hPolynomialThermo<Foam::icoPolynomial<Foam::specie, 8>, 8>, Foam::sensibleInternalEnergy>, 8>]’
  153 |         void operator=(const Reaction<ReactionThermo>&);
      |              ^~~~~~~~
lnInclude/IrreversibleReaction.H:127:17: note: synthesized method ‘Foam::IrreversibleReaction<Foam::Reaction, Foam::polynomialTransport<Foam::species::thermo<Foam::hPolynomialThermo<Foam::icoPolynomial<Foam::specie, 8>, 8>, Foam::sensibleInternalEnergy>, 8>, Foam::ChemicallyActivatedReactionRate<Foam::ArrheniusReactionRate, Foam::SRIFallOffFunction> >::IrreversibleReaction(const Foam::IrreversibleReaction<Foam::Reaction, Foam::polynomialTransport<Foam::species::thermo<Foam::hPolynomialThermo<Foam::icoPolynomial<Foam::specie, 8>, 8>, Foam::sensibleInternalEnergy>, 8>, Foam::ChemicallyActivatedReactionRate<Foam::ArrheniusReactionRate, Foam::SRIFallOffFunction> >&)’ first required here
  127 |                 new IrreversibleReaction
      |                 ^~~~~~~~~~~~~~~~~~~~~~~~
  128 |                 <
      |                 ~
  129 |                     ReactionType,
      |                     ~~~~~~~~~~~~~
  130 |                     ReactionThermo,
      |                     ~~~~~~~~~~~~~~~
  131 |                     ReactionRate
      |                     ~~~~~~~~~~~~
  132 |                 >(*this)
      |                 ~~~~~~~~
lnInclude/ReversibleReaction.H: In instantiation of ‘Foam::autoPtr<ReactionType<ReactionThermo> > Foam::ReversibleReaction<ReactionType, ReactionThermo, ReactionRate>::clone() const [with ReactionType = Foam::Reaction; ReactionThermo = Foam::polynomialTransport<Foam::species::thermo<Foam::hPolynomialThermo<Foam::icoPolynomial<Foam::specie, 8>, 8>, Foam::sensibleInternalEnergy>, 8>; ReactionRate = Foam::FallOffReactionRate<Foam::ArrheniusReactionRate, Foam::SRIFallOffFunction>]’:
lnInclude/ReversibleReaction.H:123:56:   required from here
lnInclude/ReversibleReaction.H:127:17: warning: implicitly-declared ‘Foam::ReversibleReaction<Foam::Reaction, Foam::polynomialTransport<Foam::species::thermo<Foam::hPolynomialThermo<Foam::icoPolynomial<Foam::specie, 8>, 8>, Foam::sensibleInternalEnergy>, 8>, Foam::FallOffReactionRate<Foam::ArrheniusReactionRate, Foam::SRIFallOffFunction> >::ReversibleReaction(const Foam::ReversibleReaction<Foam::Reaction, Foam::polynomialTransport<Foam::species::thermo<Foam::hPolynomialThermo<Foam::icoPolynomial<Foam::specie, 8>, 8>, Foam::sensibleInternalEnergy>, 8>, Foam::FallOffReactionRate<Foam::ArrheniusReactionRate, Foam::SRIFallOffFunction> >&)’ is deprecated [-Wdeprecated-copy]
  127 |                 new ReversibleReaction
      |                 ^~~~~~~~~~~~~~~~~~~~~~
  128 |                 <
      |                 ~
  129 |                     ReactionType,
      |                     ~~~~~~~~~~~~~
  130 |                     ReactionThermo,
      |                     ~~~~~~~~~~~~~~~
  131 |                     ReactionRate
      |                     ~~~~~~~~~~~~
  132 |                 >(*this)
      |                 ~~~~~~~~
lnInclude/ReversibleReaction.H:68:14: note: because ‘Foam::ReversibleReaction<Foam::Reaction, Foam::polynomialTransport<Foam::species::thermo<Foam::hPolynomialThermo<Foam::icoPolynomial<Foam::specie, 8>, 8>, Foam::sensibleInternalEnergy>, 8>, Foam::FallOffReactionRate<Foam::ArrheniusReactionRate, Foam::SRIFallOffFunction> >’ has user-provided ‘void Foam::ReversibleReaction<ReactionType, ReactionThermo, ReactionRate>::operator=(const Foam::ReversibleReaction<ReactionType, ReactionThermo, ReactionRate>&) [with ReactionType = Foam::Reaction; ReactionThermo = Foam::polynomialTransport<Foam::species::thermo<Foam::hPolynomialThermo<Foam::icoPolynomial<Foam::specie, 8>, 8>, Foam::sensibleInternalEnergy>, 8>; ReactionRate = Foam::FallOffReactionRate<Foam::ArrheniusReactionRate, Foam::SRIFallOffFunction>]’
   68 |         void operator=
      |              ^~~~~~~~
lnInclude/ReversibleReaction.H:56:7: warning: implicitly-declared ‘Foam::Reaction<Foam::polynomialTransport<Foam::species::thermo<Foam::hPolynomialThermo<Foam::icoPolynomial<Foam::specie, 8>, 8>, Foam::sensibleInternalEnergy>, 8> >::Reaction(const Foam::Reaction<Foam::polynomialTransport<Foam::species::thermo<Foam::hPolynomialThermo<Foam::icoPolynomial<Foam::specie, 8>, 8>, Foam::sensibleInternalEnergy>, 8> >&)’ is deprecated [-Wdeprecated-copy]
   56 | class ReversibleReaction
      |       ^~~~~~~~~~~~~~~~~~
lnInclude/Reaction.H:153:14: note: because ‘Foam::Reaction<Foam::polynomialTransport<Foam::species::thermo<Foam::hPolynomialThermo<Foam::icoPolynomial<Foam::specie, 8>, 8>, Foam::sensibleInternalEnergy>, 8> >’ has user-provided ‘void Foam::Reaction<ReactionThermo>::operator=(const Foam::Reaction<ReactionThermo>&) [with ReactionThermo = Foam::polynomialTransport<Foam::species::thermo<Foam::hPolynomialThermo<Foam::icoPolynomial<Foam::specie, 8>, 8>, Foam::sensibleInternalEnergy>, 8>]’
  153 |         void operator=(const Reaction<ReactionThermo>&);
      |              ^~~~~~~~
lnInclude/ReversibleReaction.H:127:17: note: synthesized method ‘Foam::ReversibleReaction<Foam::Reaction, Foam::polynomialTransport<Foam::species::thermo<Foam::hPolynomialThermo<Foam::icoPolynomial<Foam::specie, 8>, 8>, Foam::sensibleInternalEnergy>, 8>, Foam::FallOffReactionRate<Foam::ArrheniusReactionRate, Foam::SRIFallOffFunction> >::ReversibleReaction(const Foam::ReversibleReaction<Foam::Reaction, Foam::polynomialTransport<Foam::species::thermo<Foam::hPolynomialThermo<Foam::icoPolynomial<Foam::specie, 8>, 8>, Foam::sensibleInternalEnergy>, 8>, Foam::FallOffReactionRate<Foam::ArrheniusReactionRate, Foam::SRIFallOffFunction> >&)’ first required here
  127 |                 new ReversibleReaction
      |                 ^~~~~~~~~~~~~~~~~~~~~~
  128 |                 <
      |                 ~
  129 |                     ReactionType,
      |                     ~~~~~~~~~~~~~
  130 |                     ReactionThermo,
      |                     ~~~~~~~~~~~~~~~
  131 |                     ReactionRate
      |                     ~~~~~~~~~~~~
  132 |                 >(*this)
      |                 ~~~~~~~~
lnInclude/IrreversibleReaction.H: In instantiation of ‘Foam::autoPtr<Foam::Reaction<ReactionThermo> > Foam::IrreversibleReaction<ReactionType, ReactionThermo, ReactionRate>::clone() const [with ReactionType = Foam::Reaction; ReactionThermo = Foam::polynomialTransport<Foam::species::thermo<Foam::hPolynomialThermo<Foam::icoPolynomial<Foam::specie, 8>, 8>, Foam::sensibleInternalEnergy>, 8>; ReactionRate = Foam::FallOffReactionRate<Foam::ArrheniusReactionRate, Foam::SRIFallOffFunction>]’:
lnInclude/IrreversibleReaction.H:123:52:   required from here
lnInclude/IrreversibleReaction.H:127:17: warning: implicitly-declared ‘Foam::IrreversibleReaction<Foam::Reaction, Foam::polynomialTransport<Foam::species::thermo<Foam::hPolynomialThermo<Foam::icoPolynomial<Foam::specie, 8>, 8>, Foam::sensibleInternalEnergy>, 8>, Foam::FallOffReactionRate<Foam::ArrheniusReactionRate, Foam::SRIFallOffFunction> >::IrreversibleReaction(const Foam::IrreversibleReaction<Foam::Reaction, Foam::polynomialTransport<Foam::species::thermo<Foam::hPolynomialThermo<Foam::icoPolynomial<Foam::specie, 8>, 8>, Foam::sensibleInternalEnergy>, 8>, Foam::FallOffReactionRate<Foam::ArrheniusReactionRate, Foam::SRIFallOffFunction> >&)’ is deprecated [-Wdeprecated-copy]
  127 |                 new IrreversibleReaction
      |                 ^~~~~~~~~~~~~~~~~~~~~~~~
  128 |                 <
      |                 ~
  129 |                     ReactionType,
      |                     ~~~~~~~~~~~~~
  130 |                     ReactionThermo,
      |                     ~~~~~~~~~~~~~~~
  131 |                     ReactionRate
      |                     ~~~~~~~~~~~~
  132 |                 >(*this)
      |                 ~~~~~~~~
lnInclude/IrreversibleReaction.H:68:14: note: because ‘Foam::IrreversibleReaction<Foam::Reaction, Foam::polynomialTransport<Foam::species::thermo<Foam::hPolynomialThermo<Foam::icoPolynomial<Foam::specie, 8>, 8>, Foam::sensibleInternalEnergy>, 8>, Foam::FallOffReactionRate<Foam::ArrheniusReactionRate, Foam::SRIFallOffFunction> >’ has user-provided ‘void Foam::IrreversibleReaction<ReactionType, ReactionThermo, ReactionRate>::operator=(const Foam::IrreversibleReaction<ReactionType, ReactionThermo, ReactionRate>&) [with ReactionType = Foam::Reaction; ReactionThermo = Foam::polynomialTransport<Foam::species::thermo<Foam::hPolynomialThermo<Foam::icoPolynomial<Foam::specie, 8>, 8>, Foam::sensibleInternalEnergy>, 8>; ReactionRate = Foam::FallOffReactionRate<Foam::ArrheniusReactionRate, Foam::SRIFallOffFunction>]’
   68 |         void operator=
      |              ^~~~~~~~
lnInclude/IrreversibleReaction.H:56:7: warning: implicitly-declared ‘Foam::Reaction<Foam::polynomialTransport<Foam::species::thermo<Foam::hPolynomialThermo<Foam::icoPolynomial<Foam::specie, 8>, 8>, Foam::sensibleInternalEnergy>, 8> >::Reaction(const Foam::Reaction<Foam::polynomialTransport<Foam::species::thermo<Foam::hPolynomialThermo<Foam::icoPolynomial<Foam::specie, 8>, 8>, Foam::sensibleInternalEnergy>, 8> >&)’ is deprecated [-Wdeprecated-copy]
   56 | class IrreversibleReaction
      |       ^~~~~~~~~~~~~~~~~~~~
lnInclude/Reaction.H:153:14: note: because ‘Foam::Reaction<Foam::polynomialTransport<Foam::species::thermo<Foam::hPolynomialThermo<Foam::icoPolynomial<Foam::specie, 8>, 8>, Foam::sensibleInternalEnergy>, 8> >’ has user-provided ‘void Foam::Reaction<ReactionThermo>::operator=(const Foam::Reaction<ReactionThermo>&) [with ReactionThermo = Foam::polynomialTransport<Foam::species::thermo<Foam::hPolynomialThermo<Foam::icoPolynomial<Foam::specie, 8>, 8>, Foam::sensibleInternalEnergy>, 8>]’
  153 |         void operator=(const Reaction<ReactionThermo>&);
      |              ^~~~~~~~
lnInclude/IrreversibleReaction.H:127:17: note: synthesized method ‘Foam::IrreversibleReaction<Foam::Reaction, Foam::polynomialTransport<Foam::species::thermo<Foam::hPolynomialThermo<Foam::icoPolynomial<Foam::specie, 8>, 8>, Foam::sensibleInternalEnergy>, 8>, Foam::FallOffReactionRate<Foam::ArrheniusReactionRate, Foam::SRIFallOffFunction> >::IrreversibleReaction(const Foam::IrreversibleReaction<Foam::Reaction, Foam::polynomialTransport<Foam::species::thermo<Foam::hPolynomialThermo<Foam::icoPolynomial<Foam::specie, 8>, 8>, Foam::sensibleInternalEnergy>, 8>, Foam::FallOffReactionRate<Foam::ArrheniusReactionRate, Foam::SRIFallOffFunction> >&)’ first required here
  127 |                 new IrreversibleReaction
      |                 ^~~~~~~~~~~~~~~~~~~~~~~~
  128 |                 <
      |                 ~
  129 |                     ReactionType,
      |                     ~~~~~~~~~~~~~
  130 |                     ReactionThermo,
      |                     ~~~~~~~~~~~~~~~
  131 |                     ReactionRate
      |                     ~~~~~~~~~~~~
  132 |                 >(*this)
      |                 ~~~~~~~~
lnInclude/ReversibleReaction.H: In instantiation of ‘Foam::autoPtr<ReactionType<ReactionThermo> > Foam::ReversibleReaction<ReactionType, ReactionThermo, ReactionRate>::clone() const [with ReactionType = Foam::Reaction; ReactionThermo = Foam::polynomialTransport<Foam::species::thermo<Foam::hPolynomialThermo<Foam::icoPolynomial<Foam::specie, 8>, 8>, Foam::sensibleInternalEnergy>, 8>; ReactionRate = Foam::ChemicallyActivatedReactionRate<Foam::ArrheniusReactionRate, Foam::TroeFallOffFunction>]’:
lnInclude/ReversibleReaction.H:123:56:   required from here
lnInclude/ReversibleReaction.H:127:17: warning: implicitly-declared ‘Foam::ReversibleReaction<Foam::Reaction, Foam::polynomialTransport<Foam::species::thermo<Foam::hPolynomialThermo<Foam::icoPolynomial<Foam::specie, 8>, 8>, Foam::sensibleInternalEnergy>, 8>, Foam::ChemicallyActivatedReactionRate<Foam::ArrheniusReactionRate, Foam::TroeFallOffFunction> >::ReversibleReaction(const Foam::ReversibleReaction<Foam::Reaction, Foam::polynomialTransport<Foam::species::thermo<Foam::hPolynomialThermo<Foam::icoPolynomial<Foam::specie, 8>, 8>, Foam::sensibleInternalEnergy>, 8>, Foam::ChemicallyActivatedReactionRate<Foam::ArrheniusReactionRate, Foam::TroeFallOffFunction> >&)’ is deprecated [-Wdeprecated-copy]
  127 |                 new ReversibleReaction
      |                 ^~~~~~~~~~~~~~~~~~~~~~
  128 |                 <
      |                 ~
  129 |                     ReactionType,
      |                     ~~~~~~~~~~~~~
  130 |                     ReactionThermo,
      |                     ~~~~~~~~~~~~~~~
  131 |                     ReactionRate
      |                     ~~~~~~~~~~~~
  132 |                 >(*this)
      |                 ~~~~~~~~
lnInclude/ReversibleReaction.H:68:14: note: because ‘Foam::ReversibleReaction<Foam::Reaction, Foam::polynomialTransport<Foam::species::thermo<Foam::hPolynomialThermo<Foam::icoPolynomial<Foam::specie, 8>, 8>, Foam::sensibleInternalEnergy>, 8>, Foam::ChemicallyActivatedReactionRate<Foam::ArrheniusReactionRate, Foam::TroeFallOffFunction> >’ has user-provided ‘void Foam::ReversibleReaction<ReactionType, ReactionThermo, ReactionRate>::operator=(const Foam::ReversibleReaction<ReactionType, ReactionThermo, ReactionRate>&) [with ReactionType = Foam::Reaction; ReactionThermo = Foam::polynomialTransport<Foam::species::thermo<Foam::hPolynomialThermo<Foam::icoPolynomial<Foam::specie, 8>, 8>, Foam::sensibleInternalEnergy>, 8>; ReactionRate = Foam::ChemicallyActivatedReactionRate<Foam::ArrheniusReactionRate, Foam::TroeFallOffFunction>]’
   68 |         void operator=
      |              ^~~~~~~~
[...]
g++ -std=c++11 -m64 -Dlinux64 -DWM_ARCH_OPTION=64 -DWM_DP -DWM_LABEL_SIZE=32 -Wall -Wextra -Wold-style-cast -Wnon-virtual-dtor -Wno-unused-parameter -Wno-invalid-offsetof -Wno-attributes -O0 -fdefault-inline -ggdb3 -DFULLDEBUG -DNoRepository -ftemplate-depth-100 -I/home/adam/OpenFOAM/adam-7/flameletFoam-7/src//thermophysicalModels/basic/lnInclude -I/home/adam/OpenFOAM/adam-7/flameletFoam-7/src//thermophysicalModels/specie/lnInclude -I/home/adam/OpenFOAM/adam-7/flameletFoam-7/src//thermophysicalModels/reactionThermo/lnInclude -I/home/adam/OpenFOAM/adam-7/flameletFoam-7/src//thermophysicalModels/chemistryModel/lnInclude -I/home/adam/OpenFOAM/adam-7/flameletFoam-7/src//turbulenceModels/compressible/turbulenceModel -I/home/adam/OpenFOAM/adam-7/flameletFoam-7/src//turbulenceModels/ -I/home/adam/openfoam/OpenFOAM-7/src/turbulenceModels/LES/LESdeltas/lnInclude -I/home/adam/openfoam/OpenFOAM-7/src/turbulenceModels/LES/LESfilters/lnInclude -I/home/adam/OpenFOAM/adam-7/flameletFoam-7/src//turbulenceModels/compressible/LES/lnInclude -I/home/adam/openfoam/OpenFOAM-7/src/finiteVolume/lnInclude -I/home/adam/openfoam/OpenFOAM-7/src/meshTools/lnInclude -IlnInclude -I. -I/home/adam/openfoam/OpenFOAM-7/src/OpenFOAM/lnInclude -I/home/adam/openfoam/OpenFOAM-7/src/OSspecific/POSIX/lnInclude   -fPIC -c rhoCombustionModel/rhoThermoCombustion/rhoThermoCombustion.C -o Make/linux64GccDPInt32Debug/rhoCombustionModel/rhoThermoCombustion/rhoThermoCombustion.o
g++ -std=c++11 -m64 -Dlinux64 -DWM_ARCH_OPTION=64 -DWM_DP -DWM_LABEL_SIZE=32 -Wall -Wextra -Wold-style-cast -Wnon-virtual-dtor -Wno-unused-parameter -Wno-invalid-offsetof -Wno-attributes -O0 -fdefault-inline -ggdb3 -DFULLDEBUG -DNoRepository -ftemplate-depth-100 -I/home/adam/OpenFOAM/adam-7/flameletFoam-7/src//thermophysicalModels/basic/lnInclude -I/home/adam/OpenFOAM/adam-7/flameletFoam-7/src//thermophysicalModels/specie/lnInclude -I/home/adam/OpenFOAM/adam-7/flameletFoam-7/src//thermophysicalModels/reactionThermo/lnInclude -I/home/adam/OpenFOAM/adam-7/flameletFoam-7/src//thermophysicalModels/chemistryModel/lnInclude -I/home/adam/OpenFOAM/adam-7/flameletFoam-7/src//turbulenceModels/compressible/turbulenceModel -I/home/adam/OpenFOAM/adam-7/flameletFoam-7/src//turbulenceModels/ -I/home/adam/openfoam/OpenFOAM-7/src/turbulenceModels/LES/LESdeltas/lnInclude -I/home/adam/openfoam/OpenFOAM-7/src/turbulenceModels/LES/LESfilters/lnInclude -I/home/adam/OpenFOAM/adam-7/flameletFoam-7/src//turbulenceModels/compressible/LES/lnInclude -I/home/adam/openfoam/OpenFOAM-7/src/finiteVolume/lnInclude -I/home/adam/openfoam/OpenFOAM-7/src/meshTools/lnInclude -IlnInclude -I. -I/home/adam/openfoam/OpenFOAM-7/src/OpenFOAM/lnInclude -I/home/adam/openfoam/OpenFOAM-7/src/OSspecific/POSIX/lnInclude   -fPIC -c rhoCombustionModel/rhoChemistryCombustion/rhoChemistryCombustion.C -o Make/linux64GccDPInt32Debug/rhoCombustionModel/rhoChemistryCombustion/rhoChemistryCombustion.o
g++ -std=c++11 -m64 -Dlinux64 -DWM_ARCH_OPTION=64 -DWM_DP -DWM_LABEL_SIZE=32 -Wall -Wextra -Wold-style-cast -Wnon-virtual-dtor -Wno-unused-parameter -Wno-invalid-offsetof -Wno-attributes -O0 -fdefault-inline -ggdb3 -DFULLDEBUG -DNoRepository -ftemplate-depth-100 -I/home/adam/OpenFOAM/adam-7/flameletFoam-7/src//thermophysicalModels/basic/lnInclude -I/home/adam/OpenFOAM/adam-7/flameletFoam-7/src//thermophysicalModels/specie/lnInclude -I/home/adam/OpenFOAM/adam-7/flameletFoam-7/src//thermophysicalModels/reactionThermo/lnInclude -I/home/adam/OpenFOAM/adam-7/flameletFoam-7/src//thermophysicalModels/chemistryModel/lnInclude -I/home/adam/OpenFOAM/adam-7/flameletFoam-7/src//turbulenceModels/compressible/turbulenceModel -I/home/adam/OpenFOAM/adam-7/flameletFoam-7/src//turbulenceModels/ -I/home/adam/openfoam/OpenFOAM-7/src/turbulenceModels/LES/LESdeltas/lnInclude -I/home/adam/openfoam/OpenFOAM-7/src/turbulenceModels/LES/LESfilters/lnInclude -I/home/adam/OpenFOAM/adam-7/flameletFoam-7/src//turbulenceModels/compressible/LES/lnInclude -I/home/adam/openfoam/OpenFOAM-7/src/finiteVolume/lnInclude -I/home/adam/openfoam/OpenFOAM-7/src/meshTools/lnInclude -IlnInclude -I. -I/home/adam/openfoam/OpenFOAM-7/src/OpenFOAM/lnInclude -I/home/adam/openfoam/OpenFOAM-7/src/OSspecific/POSIX/lnInclude   -fPIC -c flameletTable/linearInterpolation/linearInterpolation.C -o Make/linux64GccDPInt32Debug/flameletTable/linearInterpolation/linearInterpolation.o
g++ -std=c++11 -m64 -Dlinux64 -DWM_ARCH_OPTION=64 -DWM_DP -DWM_LABEL_SIZE=32 -Wall -Wextra -Wold-style-cast -Wnon-virtual-dtor -Wno-unused-parameter -Wno-invalid-offsetof -Wno-attributes -O0 -fdefault-inline -ggdb3 -DFULLDEBUG -DNoRepository -ftemplate-depth-100 -I/home/adam/OpenFOAM/adam-7/flameletFoam-7/src//thermophysicalModels/basic/lnInclude -I/home/adam/OpenFOAM/adam-7/flameletFoam-7/src//thermophysicalModels/specie/lnInclude -I/home/adam/OpenFOAM/adam-7/flameletFoam-7/src//thermophysicalModels/reactionThermo/lnInclude -I/home/adam/OpenFOAM/adam-7/flameletFoam-7/src//thermophysicalModels/chemistryModel/lnInclude -I/home/adam/OpenFOAM/adam-7/flameletFoam-7/src//turbulenceModels/compressible/turbulenceModel -I/home/adam/OpenFOAM/adam-7/flameletFoam-7/src//turbulenceModels/ -I/home/adam/openfoam/OpenFOAM-7/src/turbulenceModels/LES/LESdeltas/lnInclude -I/home/adam/openfoam/OpenFOAM-7/src/turbulenceModels/LES/LESfilters/lnInclude -I/home/adam/OpenFOAM/adam-7/flameletFoam-7/src//turbulenceModels/compressible/LES/lnInclude -I/home/adam/openfoam/OpenFOAM-7/src/finiteVolume/lnInclude -I/home/adam/openfoam/OpenFOAM-7/src/meshTools/lnInclude -IlnInclude -I. -I/home/adam/openfoam/OpenFOAM-7/src/OpenFOAM/lnInclude -I/home/adam/openfoam/OpenFOAM-7/src/OSspecific/POSIX/lnInclude   -fPIC -c flameletTable/flameletTable/flameletTable.C -o Make/linux64GccDPInt32Debug/flameletTable/flameletTable/flameletTable.o
g++ -std=c++11 -m64 -Dlinux64 -DWM_ARCH_OPTION=64 -DWM_DP -DWM_LABEL_SIZE=32 -Wall -Wextra -Wold-style-cast -Wnon-virtual-dtor -Wno-unused-parameter -Wno-invalid-offsetof -Wno-attributes -O0 -fdefault-inline -ggdb3 -DFULLDEBUG -DNoRepository -ftemplate-depth-100 -I/home/adam/OpenFOAM/adam-7/flameletFoam-7/src//thermophysicalModels/basic/lnInclude -I/home/adam/OpenFOAM/adam-7/flameletFoam-7/src//thermophysicalModels/specie/lnInclude -I/home/adam/OpenFOAM/adam-7/flameletFoam-7/src//thermophysicalModels/reactionThermo/lnInclude -I/home/adam/OpenFOAM/adam-7/flameletFoam-7/src//thermophysicalModels/chemistryModel/lnInclude -I/home/adam/OpenFOAM/adam-7/flameletFoam-7/src//turbulenceModels/compressible/turbulenceModel -I/home/adam/OpenFOAM/adam-7/flameletFoam-7/src//turbulenceModels/ -I/home/adam/openfoam/OpenFOAM-7/src/turbulenceModels/LES/LESdeltas/lnInclude -I/home/adam/openfoam/OpenFOAM-7/src/turbulenceModels/LES/LESfilters/lnInclude -I/home/adam/OpenFOAM/adam-7/flameletFoam-7/src//turbulenceModels/compressible/LES/lnInclude -I/home/adam/openfoam/OpenFOAM-7/src/finiteVolume/lnInclude -I/home/adam/openfoam/OpenFOAM-7/src/meshTools/lnInclude -IlnInclude -I. -I/home/adam/openfoam/OpenFOAM-7/src/OpenFOAM/lnInclude -I/home/adam/openfoam/OpenFOAM-7/src/OSspecific/POSIX/lnInclude   -fPIC -c flameletTable/tableSolver/tableSolver.C -o Make/linux64GccDPInt32Debug/flameletTable/tableSolver/tableSolver.o
g++ -std=c++11 -m64 -Dlinux64 -DWM_ARCH_OPTION=64 -DWM_DP -DWM_LABEL_SIZE=32 -Wall -Wextra -Wold-style-cast -Wnon-virtual-dtor -Wno-unused-parameter -Wno-invalid-offsetof -Wno-attributes -O0 -fdefault-inline -ggdb3 -DFULLDEBUG -DNoRepository -ftemplate-depth-100 -I/home/adam/OpenFOAM/adam-7/flameletFoam-7/src//thermophysicalModels/basic/lnInclude -I/home/adam/OpenFOAM/adam-7/flameletFoam-7/src//thermophysicalModels/specie/lnInclude -I/home/adam/OpenFOAM/adam-7/flameletFoam-7/src//thermophysicalModels/reactionThermo/lnInclude -I/home/adam/OpenFOAM/adam-7/flameletFoam-7/src//thermophysicalModels/chemistryModel/lnInclude -I/home/adam/OpenFOAM/adam-7/flameletFoam-7/src//turbulenceModels/compressible/turbulenceModel -I/home/adam/OpenFOAM/adam-7/flameletFoam-7/src//turbulenceModels/ -I/home/adam/openfoam/OpenFOAM-7/src/turbulenceModels/LES/LESdeltas/lnInclude -I/home/adam/openfoam/OpenFOAM-7/src/turbulenceModels/LES/LESfilters/lnInclude -I/home/adam/OpenFOAM/adam-7/flameletFoam-7/src//turbulenceModels/compressible/LES/lnInclude -I/home/adam/openfoam/OpenFOAM-7/src/finiteVolume/lnInclude -I/home/adam/openfoam/OpenFOAM-7/src/meshTools/lnInclude -IlnInclude -I. -I/home/adam/openfoam/OpenFOAM-7/src/OpenFOAM/lnInclude -I/home/adam/openfoam/OpenFOAM-7/src/OSspecific/POSIX/lnInclude   -fPIC -c YSLFModel/YSLFModels.C -o Make/linux64GccDPInt32Debug/YSLFModel/YSLFModels.o
In file included from /home/adam/OpenFOAM/adam-7/flameletFoam-7/src//thermophysicalModels/specie/lnInclude/Reaction.H:381,
                 from /home/adam/OpenFOAM/adam-7/flameletFoam-7/src//thermophysicalModels/reactionThermo/lnInclude/chemistryReader.H:40,
                 from /home/adam/OpenFOAM/adam-7/flameletFoam-7/src//thermophysicalModels/reactionThermo/lnInclude/reactingMixture.H:43,
                 from YSLFModel/YSLFModel.C:30,
                 from YSLFModel/YSLFModel.H:161,
                 from YSLFModel/YSLFModels.C:34:
/home/adam/OpenFOAM/adam-7/flameletFoam-7/src//thermophysicalModels/specie/lnInclude/ReactionI.H: In member function ‘Foam::word& Foam::Reaction<ReactionThermo>::name()’:
/home/adam/OpenFOAM/adam-7/flameletFoam-7/src//thermophysicalModels/specie/lnInclude/ReactionI.H:38:12: error: binding reference of type ‘Foam::word&’ to ‘const Foam::word’ discards qualifiers
   38 |     return name_;
      |            ^~~~~
YSLFModel/YSLFModel.C: In instantiation of ‘void Foam::combustionModels::YSLFModel<CombThermoType>::correct() [with CombThermoType = Foam::combustionModels::rhoThermoCombustion]’:
YSLFModel/YSLFModel.C:90:6:   required from here
YSLFModel/YSLFModel.C:99:18: error: binding reference of type ‘Foam::scalarField&’ {aka ‘Foam::Field<double>&’} to ‘const Foam::Field<double>’ discards qualifiers
   99 |     scalarField& heCells = he_.internalField();
      |                  ^~~~~~~
YSLFModel/YSLFModel.C:110:24: error: binding reference of type ‘Foam::scalarField&’ {aka ‘Foam::Field<double>&’} to ‘const Foam::Field<double>’ discards qualifiers
  110 |           scalarField& YCells = Y_[i].internalField();
      |                        ^~~~~~
YSLFModel/YSLFModel.C:138:31: error: binding reference of type ‘Foam::fvPatchScalarField&’ {aka ‘Foam::fvPatchField<double>&’} to ‘const Foam::fvPatchField<double>’ discards qualifiers
  138 |           fvPatchScalarField& pHe = he_.boundaryField()[patchi];
      |                               ^~~
YSLFModel/YSLFModel.C:142:39: error: binding reference of type ‘Foam::fvPatchScalarField&’ {aka ‘Foam::fvPatchField<double>&’} to ‘const Foam::fvPatchField<double>’ discards qualifiers
  142 |                   fvPatchScalarField& pY = Y_[i].boundaryField()[patchi];
      |                                       ^~
make: *** [/home/adam/openfoam/OpenFOAM-7/wmake/rules/General/transform:26: Make/linux64GccDPInt32Debug/YSLFModel/YSLFModels.o] Error 1
+ wmake ./applications/utilities/preProcessing/canteraToFoam
wmake ./applications/utilities/preProcessing/canteraToFoam
wmakeLnIncludeAll: running wmakeLnInclude on dependent libraries:
    wmakeLnInclude error: base directory /home/adam/openfoam/OpenFOAM-7/src/turbulenceModels/LES/LESdeltas/ does not exist
Make/options:1:11: warning: backslash and newline separated by space
    1 | EXE_INC = \
      |            
Make/options:4:38: warning: backslash and newline separated by space
    4 |     -I$(LIB_SRC)/meshTools/lnInclude \
      |                                       
Making dependency list for source file canteraToFoam.C
Making dependency list for source file canteraReader.C
Making dependency list for source file Gamma.cpp
make: *** No rule to make target 'Make/linux64GccDPInt32Debug/canteraScanner.C.dep', needed by 'Make/linux64GccDPInt32Debug/canteraScanner.o'.  Stop.
+ wmake ./applications/utilities/postProcessing/flameletFoamPost
wmake ./applications/utilities/postProcessing/flameletFoamPost
wmakeLnIncludeAll: running wmakeLnInclude on dependent libraries:
    wmakeLnInclude error: base directory /home/adam/openfoam/OpenFOAM-7/src/turbulenceModels/LES/LESdeltas/ does not exist
Making dependency list for source file flameletFoamPost.C
g++ -std=c++11 -m64 -Dlinux64 -DWM_ARCH_OPTION=64 -DWM_DP -DWM_LABEL_SIZE=32 -Wall -Wextra -Wold-style-cast -Wnon-virtual-dtor -Wno-unused-parameter -Wno-invalid-offsetof -Wno-attributes -O0 -fdefault-inline -ggdb3 -DFULLDEBUG -DNoRepository -ftemplate-depth-100 -I/home/adam/openfoam/OpenFOAM-7/src/OpenFOAM/lnInclude -I/home/adam/openfoam/OpenFOAM-7/src/finiteVolume/lnInclude -I/home/adam/openfoam/OpenFOAM-7/src/meshTools/lnInclude -I/home/adam/OpenFOAM/adam-7/flameletFoam-7/src//turbulenceModels -I/home/adam/OpenFOAM/adam-7/flameletFoam-7/src//turbulenceModels/compressible/turbulenceModel/lnInclude -I/home/adam/OpenFOAM/adam-7/flameletFoam-7/src//turbulenceModels/compressible/RAS/lnInclude -I/home/adam/OpenFOAM/adam-7/flameletFoam-7/src//turbulenceModels/compressible/LES/lnInclude -I/home/adam/openfoam/OpenFOAM-7/src/turbulenceModels/LES/LESdeltas/lnInclude -I/home/adam/OpenFOAM/adam-7/flameletFoam-7/src//thermophysicalModels/specie/lnInclude -I/home/adam/OpenFOAM/adam-7/flameletFoam-7/src//thermophysicalModels/reactionThermo/lnInclude -I/home/adam/OpenFOAM/adam-7/flameletFoam-7/src//thermophysicalModels/basic/lnInclude -I/home/adam/OpenFOAM/adam-7/flameletFoam-7/src//combustionModels/lnInclude -I/home/adam/OpenFOAM/adam-7/flameletFoam-7/src//thermophysicalModels/chemistryModel  -IlnInclude -I. -I/home/adam/openfoam/OpenFOAM-7/src/OpenFOAM/lnInclude -I/home/adam/openfoam/OpenFOAM-7/src/OSspecific/POSIX/lnInclude   -fPIC -c flameletFoamPost.C -o Make/linux64GccDPInt32Debug/flameletFoamPost.o
flameletFoamPost.C: In function ‘int main(int, char**)’:
flameletFoamPost.C:186:51: error: binding reference of type ‘Foam::scalarField&’ {aka ‘Foam::Field<double>&’} to ‘const Foam::Field<double>’ discards qualifiers
  186 |           scalarField& YCells = Y[i].internalField();
      |                                 ~~~~~~~~~~~~~~~~~~^~
flameletFoamPost.C:213:63: error: binding reference of type ‘Foam::fvPatchScalarField&’ {aka ‘Foam::fvPatchField<double>&’} to ‘const Foam::fvPatchField<double>’ discards qualifiers
  213 |            fvPatchScalarField& pHe = he.boundaryField()[patchi];
      |                                                               ^
flameletFoamPost.C:217:71: error: binding reference of type ‘Foam::fvPatchScalarField&’ {aka ‘Foam::fvPatchField<double>&’} to ‘const Foam::fvPatchField<double>’ discards qualifiers
  217 |                   fvPatchScalarField& pY = Y[i].boundaryField()[patchi];
      |                                                                       ^
make: *** [/home/adam/openfoam/OpenFOAM-7/wmake/rules/General/transform:26: Make/linux64GccDPInt32Debug/flameletFoamPost.o] Error 1
+ wmake ./applications/solver/flameletFoam
wmake ./applications/solver/flameletFoam
Making dependency list for source file flameletFoam.C
g++ -std=c++11 -m64 -Dlinux64 -DWM_ARCH_OPTION=64 -DWM_DP -DWM_LABEL_SIZE=32 -Wall -Wextra -Wold-style-cast -Wnon-virtual-dtor -Wno-unused-parameter -Wno-invalid-offsetof -Wno-attributes -O0 -fdefault-inline -ggdb3 -DFULLDEBUG -DNoRepository -ftemplate-depth-100 -I/home/adam/OpenFOAM/adam-7/flameletFoam-7/src//turbulenceModels/compressible/turbulenceModel -I/home/adam/OpenFOAM/adam-7/flameletFoam-7/src//thermophysicalModels/specie/lnInclude -I/home/adam/OpenFOAM/adam-7/flameletFoam-7/src//thermophysicalModels/reactionThermo/lnInclude -I/home/adam/OpenFOAM/adam-7/flameletFoam-7/src//thermophysicalModels/basic/lnInclude -I/home/adam/openfoam/OpenFOAM-7/src/finiteVolume/lnInclude -I/home/adam/OpenFOAM/adam-7/flameletFoam-7/src//fvOptions/lnInclude -I/home/adam/openfoam/OpenFOAM-7/src/meshTools/lnInclude -I/home/adam/openfoam/OpenFOAM-7/src/sampling/lnInclude -I/home/adam/OpenFOAM/adam-7/flameletFoam-7/src//thermophysicalModels/chemistryModel -I/home/adam/OpenFOAM/adam-7/flameletFoam-7/src//combustionModels/lnInclude -IlnInclude -I. -I/home/adam/openfoam/OpenFOAM-7/src/OpenFOAM/lnInclude -I/home/adam/openfoam/OpenFOAM-7/src/OSspecific/POSIX/lnInclude   -fPIC -c flameletFoam.C -o Make/linux64GccDPInt32Debug/flameletFoam.o
In file included from flameletFoam.C:52:
/home/adam/openfoam/OpenFOAM-7/src/finiteVolume/lnInclude/createFvOptions.H: In function ‘int main(int, char**)’:
/home/adam/openfoam/OpenFOAM-7/src/finiteVolume/lnInclude/createFvOptions.H:1:5: error: ‘options’ is not a member of ‘Foam::fv’; did you mean ‘option’?
    1 | fv::options& fvOptions(fv::options::New(mesh));
      |     ^~~~~~~
      |     option
/home/adam/openfoam/OpenFOAM-7/src/finiteVolume/lnInclude/createFvOptions.H:1:28: error: ‘Foam::fv::options’ has not been declared
    1 | fv::options& fvOptions(fv::options::New(mesh));
      |                            ^~~~~~~
/home/adam/openfoam/OpenFOAM-7/src/finiteVolume/lnInclude/createFvOptions.H:1:14: error: ‘fvOptions’ was not declared in this scope; did you mean ‘fvOption_H’?
    1 | fv::options& fvOptions(fv::options::New(mesh));
      |              ^~~~~~~~~
      |              fvOption_H
/home/adam/openfoam/OpenFOAM-7/src/finiteVolume/lnInclude/createFvOptions.H:3:16: error: request for member ‘optionList’ in non-class type ‘<type error>’
    3 | if (!fvOptions.optionList::size())
      |                ^~~~~~~~~~
In file included from flameletFoam.C:54:
/home/adam/openfoam/OpenFOAM-7/src/finiteVolume/lnInclude/readTimeControls.H:32:1: error: ‘adjustTimeStep’ was not declared in this scope
   32 | adjustTimeStep =
      | ^~~~~~~~~~~~~~
/home/adam/openfoam/OpenFOAM-7/src/finiteVolume/lnInclude/readTimeControls.H:35:1: error: ‘maxCo’ was not declared in this scope
   35 | maxCo =
      | ^~~~~
/home/adam/openfoam/OpenFOAM-7/src/finiteVolume/lnInclude/readTimeControls.H:38:1: error: ‘maxDeltaT’ was not declared in this scope
   38 | maxDeltaT =
      | ^~~~~~~~~
In file included from flameletFoam.C:79:
ZEqn.H:11:21: error: ‘class Foam::fvMesh’ has no member named ‘solver’; did you mean ‘Foam::dictionary Foam::solution::solvers_’? (not accessible from this context)
   11 |     ZEqn.solve(mesh.solver("Z"));
      |                     ^~~~~~
In file included from /home/adam/openfoam/OpenFOAM-7/src/finiteVolume/lnInclude/fvSolution.H:37,
                 from /home/adam/openfoam/OpenFOAM-7/src/finiteVolume/lnInclude/fvMesh.H:56,
                 from /home/adam/openfoam/OpenFOAM-7/src/finiteVolume/lnInclude/fvCFD.H:7,
                 from flameletFoam.C:36:
/home/adam/openfoam/OpenFOAM-7/src/OpenFOAM/lnInclude/solution.H:74:20: note: declared private here
   74 |         dictionary solvers_;
      |                    ^~~~~~~~
In file included from flameletFoam.C:84:
pEqn.H:49:29: error: ‘class Foam::fvMesh’ has no member named ‘solver’; did you mean ‘Foam::dictionary Foam::solution::solvers_’? (not accessible from this context)
   49 |             pEqn.solve(mesh.solver(p.select(pimple.finalInnerIter())));
      |                             ^~~~~~
/home/adam/openfoam/OpenFOAM-7/src/OpenFOAM/lnInclude/solution.H:74:20: note: declared private here
   74 |         dictionary solvers_;
      |                    ^~~~~~~~
pEqn.H:88:29: error: ‘class Foam::fvMesh’ has no member named ‘solver’; did you mean ‘Foam::dictionary Foam::solution::solvers_’? (not accessible from this context)
   88 |             pEqn.solve(mesh.solver(p.select(pimple.finalInnerIter())));
      |                             ^~~~~~
/home/adam/openfoam/OpenFOAM-7/src/OpenFOAM/lnInclude/solution.H:74:20: note: declared private here
   74 |         dictionary solvers_;
      |                    ^~~~~~~~
make: *** [/home/adam/openfoam/OpenFOAM-7/wmake/rules/General/transform:26: Make/linux64GccDPInt32Debug/flameletFoam.o] Error 1
